Original_Dataset_Offline_Edition_1/Network_03O-10/scenario_5/case.raw
0,100.0,33,0,1,60.0
GO Competition -- Network Model 03
2019-02-08
1,'A1',115.0,1,1,1,1,1.0,0.0,1.05,0.95,1.1,0.9
2,'A2',115.0,1,1,1,1,1.0,0.0,1.05,0.95,1.1,0.9
3,'A3',35.0,1,1,1,1,1.0,0.0,1.05,0.95,1.1,0.9
4,'A4',115.0,1,1,1,1,1.0,0.0,1.05,0.95,1.1,0.9
5,'A5',13.0,1,1,1,1,1.0,0.0,1.05,0.95,1.1,0.9
6,'A6',14.0,2,1,1,1,1.0,0.0,1.05,0.95,1.1,0.9
7,'A7',115.0,1,1,1,1,1.0,0.0,1.05,0.95,1.1,0.9
8,'A8',13.0,1,1,1,1,1.0,0.0,1.05,0.95,1.1,0.9
9,'A9',35.0,1,1,1,1,1.0,0.0,1.05,0.95,1.1,0.9
10,'A10',115.0,1,1,1,1,1.0,0.0,1.05,0.95,1.1,0.9
11,'A11',115.0,1,1,1,1,1.0,0.0,1.05,0.95,1.1,0.9
12,'A12',35.0,1,1,1,1,1.0,0.0,1.05,0.95,1.1,0.9
13,'A13',13.0,1,1,1,1,1.0,0.0,1.05,0.95,1.1,0.9
15,'A15',35.0,1,1,1,1,1.0,0.0,1.05,0.95,1.1,0.9
16,'A16',115.0,1,1,1,1,1.0,0.0,1.05,0.95,1.1,0.9
17,'A17',115.0,1,1,1,1,1.0,0.0,1.05,0.95,1.1,0.9
18,'A18',230.0,1,1,1,1,1.0,0.0,1.05,0.95,1.1,0.9
19,'A19',230.0,1,1,1,1,1.0,0.0,1.05,0.95,1.1,0.9
20,'A20',13.0,1,1,1,1,1.0,0.0,1.05,0.95,1.1,0.9
21,'A21',115.0,1,1,1,1,1.0,0.0,1.05,0.95,1.1,0.9
22,'A22',115.0,1,1,1,1,1.0,0.0,1.05,0.95,1.1,0.9
23,'A23',115.0,2,1,1,1,1.0,0.0,1.05,0.95,1.1,0.9
24,'A24',115.0,1,1,1,1,1.0,0.0,1.05,0.95,1.1,0.9
25,'A25',14.0,2,1,1,1,1.0,0.0,1.05,0.95,1.1,0.9
27,'A27',115.0,1,1,1,1,1.0,0.0,1.05,0.95,1.1,0.9
28,'A28',35.0,1,1,1,1,1.0,0.0,1.05,0.95,1.1,0.9
30,'A30',115.0,1,1,1,1,1.0,0.0,1.05,0.95,1.1,0.9
31,'A31',230.0,2,1,1,1,1.0,0.0,1.05,0.95,1.1,0.9
32,'A32',115.0,1,1,1,1,1.0,0.0,1.05,0.95,1.1,0.9
33,'A33',230.0,2,1,1,1,1.0,0.0,1.05,0.95,1.1,0.9
34,'A34',35.0,1,1,1,1,1.0,0.0,1.05,0.95,1.1,0.9
35,'A35',230.0,2,1,1,1,1.0,0.0,1.05,0.95,1.1,0.9
36,'A36',230.0,1,1,1,1,1.0,0.0,1.05,0.95,1.1,0.9
37,'A37',230.0,1,1,1,1,1.0,0.0,1.05,0.95,1.1,0.9
38,'A38',230.0,1,1,1,1,1.0,0.0,1.05,0.95,1.1,0.9
39,'A39',35.0,1,1,1,1,1.0,0.0,1.05,0.95,1.1,0.9
40,'A40',115.0,1,1,1,1,1.0,0.0,1.05,0.95,1.1,0.9
41,'A41',230.0,1,1,1,1,1.0,0.0,1.05,0.95,1.1,0.9
43,'A43',115.0,2,1,1,1,1.0,0.0,1.05,0.95,1.1,0.9
44,'A44',115.0,1,1,1,1,1.0,0.0,1.05,0.95,1.1,0.9
45,'A45',230.0,2,1,1,1,1.0,0.0,1.05,0.95,1.1,0.9
46,'A46',230.0,2,1,1,1,1.0,0.0,1.05,0.95,1.1,0.9
47,'A47',115.0,2,1,1,1,1.0,0.0,1.05,0.95,1.1,0.9
49,'A49',35.0,1,1,1,1,1.0,0.0,1.05,0.95,1.1,0.9
50,'A50',115.0,1,1,1,1,1.0,0.0,1.05,0.95,1.1,0.9
51,'A51',13.0,1,1,1,1,1.0,0.0,1.05,0.95,1.1,0.9
52,'A52',230.0,2,1,1,1,1.0,0.0,1.05,0.95,1.1,0.9
53,'A53',115.0,1,1,1,1,1.0,0.0,1.05,0.95,1.1,0.9
54,'A54',35.0,1,1,1,1,1.0,0.0,1.05,0.95,1.1,0.9
55,'A55',230.0,2,1,1,1,1.0,0.0,1.05,0.95,1.1,0.9
56,'A56',35.0,1,1,1,1,1.0,0.0,1.05,0.95,1.1,0.9
57,'A57',115.0,1,1,1,1,1.0,0.0,1.05,0.95,1.1,0.9
58,'A58',115.0,1,1,1,1,1.0,0.0,1.05,0.95,1.1,0.9
59,'A59',35.0,2,1,1,1,1.0,0.0,1.05,0.95,1.1,0.9
60,'A60',115.0,1,1,1,1,1.0,0.0,1.05,0.95,1.1,0.9
61,'A61',13.0,1,1,1,1,1.0,0.0,1.05,0.95,1.1,0.9
62,'A62',115.0,1,1,1,1,1.0,0.0,1.05,0.95,1.1,0.9
63,'A63',230.0,1,1,1,1,1.0,0.0,1.05,0.95,1.1,0.9
64,'A64',35.0,1,1,1,1,1.0,0.0,1.05,0.95,1.1,0.9
65,'A65',14.0,2,1,1,1,1.0,0.0,1.05,0.95,1.1,0.9
66,'A66',230.0,1,1,1,1,1.0,0.0,1.05,0.95,1.1,0.9
67,'A67',115.0,1,1,1,1,1.0,0.0,1.05,0.95,1.1,0.9
68,'A68',115.0,1,1,1,1,1.0,0.0,1.05,0.95,1.1,0.9
69,'A69',230.0,1,1,1,1,1.0,0.0,1.05,0.95,1.1,0.9
70,'A70',35.0,1,1,1,1,1.0,0.0,1.05,0.95,1.1,0.9
71,'A71',115.0,2,1,1,1,1.0,0.0,1.05,0.95,1.1,0.9
72,'A72',115.0,1,1,1,1,1.0,0.0,1.05,0.95,1.1,0.9
73,'A73',115.0,1,1,1,1,1.0,0.0,1.05,0.95,1.1,0.9
74,'A74',115.0,1,1,1,1,1.0,0.0,1.05,0.95,1.1,0.9
75,'A75',13.0,1,1,1,1,1.0,0.0,1.05,0.95,1.1,0.9
76,'A76',115.0,1,1,1,1,1.0,0.0,1.05,0.95,1.1,0.9
77,'A77',35.0,1,1,1,1,1.0,0.0,1.05,0.95,1.1,0.9
78,'A78',35.0,1,1,1,1,1.0,0.0,1.05,0.95,1.1,0.9
79,'A79',230.0,1,1,1,1,1.0,0.0,1.05,0.95,1.1,0.9
80,'A80',14.0,2,1,1,1,1.0,0.0,1.05,0.95,1.1,0.9
81,'A81',115.0,1,1,1,1,1.0,0.0,1.05,0.95,1.1,0.9
82,'A82',115.0,1,1,1,1,1.0,0.0,1.05,0.95,1.1,0.9
83,'A83',115.0,1,1,1,1,1.0,0.0,1.05,0.95,1.1,0.9
84,'A84',115.0,1,1,1,1,1.0,0.0,1.05,0.95,1.1,0.9
85,'A85',115.0,1,1,1,1,1.0,0.0,1.05,0.95,1.1,0.9
86,'A86',230.0,2,1,1,1,1.0,0.0,1.05,0.95,1.1,0.9
87,'A87',230.0,2,1,1,1,1.0,0.0,1.05,0.95,1.1,0.9
88,'A88',35.0,1,1,1,1,1.0,0.0,1.05,0.95,1.1,0.9
89,'A89',35.0,1,1,1,1,1.0,0.0,1.05,0.95,1.1,0.9
90,'A90',230.0,2,1,1,1,1.0,0.0,1.05,0.95,1.1,0.9
91,'A91',115.0,1,1,1,1,1.0,0.0,1.05,0.95,1.1,0.9
92,'A92',115.0,1,1,1,1,1.0,0.0,1.05,0.95,1.1,0.9
93,'A93',115.0,2,1,1,1,1.0,0.0,1.05,0.95,1.1,0.9
94,'A94',115.0,1,1,1,1,1.0,0.0,1.05,0.95,1.1,0.9
95,'B95',345.0,1,1,2,1,1.0,0.0,1.05,0.95,1.1,0.9
96,'B96',345.0,1,1,2,1,1.0,0.0,1.05,0.95,1.1,0.9
97,'B97',345.0,1,1,2,1,1.0,0.0,1.05,0.95,1.1,0.9
98,'B98',345.0,2,1,2,1,1.0,0.0,1.05,0.95,1.1,0.9
99,'B99',345.0,2,1,2,1,1.0,0.0,1.05,0.95,1.1,0.9
100,'B100',345.0,2,1,2,1,1.0,0.0,1.05,0.95,1.1,0.9
101,'B101',345.0,1,1,2,1,1.0,0.0,1.05,0.95,1.1,0.9
102,'B102',345.0,1,1,2,1,1.0,0.0,1.05,0.95,1.1,0.9
103,'B103',138.0,1,1,2,1,1.0,0.0,1.05,0.95,1.1,0.9
104,'B104',138.0,1,1,2,1,1.0,0.0,1.05,0.95,1.1,0.9
105,'B105',138.0,1,1,2,1,1.0,0.0,1.05,0.95,1.1,0.9
106,'B106',138.0,1,1,2,1,1.0,0.0,1.05,0.95,1.1,0.9
107,'B107',138.0,1,1,2,1,1.0,0.0,1.05,0.95,1.1,0.9
108,'B108',138.0,1,1,2,1,1.0,0.0,1.05,0.95,1.1,0.9
109,'B109',138.0,1,1,2,1,1.0,0.0,1.05,0.95,1.1,0.9
110,'B110',138.0,1,1,2,1,1.0,0.0,1.05,0.95,1.1,0.9
111,'B111',138.0,1,1,2,1,1.0,0.0,1.05,0.95,1.1,0.9
112,'B112',138.0,1,1,2,1,1.0,0.0,1.05,0.95,1.1,0.9
113,'B113',138.0,1,1,2,1,1.0,0.0,1.05,0.95,1.1,0.9
114,'B114',138.0,1,1,2,1,1.0,0.0,1.05,0.95,1.1,0.9
115,'B115',138.0,1,1,2,1,1.0,0.0,1.05,0.95,1.1,0.9
116,'B116',138.0,2,1,2,1,1.0,0.0,1.05,0.95,1.1,0.9
117,'B117',138.0,2,1,2,1,1.0,0.0,1.05,0.95,1.1,0.9
118,'B118',138.0,1,1,2,1,1.0,0.0,1.05,0.95,1.1,0.9
119,'B119',138.0,1,1,2,1,1.0,0.0,1.05,0.95,1.1,0.9
120,'B120',138.0,1,1,2,1,1.0,0.0,1.05,0.95,1.1,0.9
121,'B121',138.0,2,1,2,1,1.0,0.0,1.05,0.95,1.1,0.9
122,'B122',138.0,1,1,2,1,1.0,0.0,1.05,0.95,1.1,0.9
123,'B123',138.0,1,1,2,1,1.0,0.0,1.05,0.95,1.1,0.9
124,'B124',138.0,1,1,2,1,1.0,0.0,1.05,0.95,1.1,0.9
125,'B125',138.0,1,1,2,1,1.0,0.0,1.05,0.95,1.1,0.9
126,'B126',138.0,1,1,2,1,1.0,0.0,1.05,0.95,1.1,0.9
127,'B127',138.0,1,1,2,1,1.0,0.0,1.05,0.95,1.1,0.9
128,'B128',138.0,1,1,2,1,1.0,0.0,1.05,0.95,1.1,0.9
129,'B129',138.0,1,1,2,1,1.0,0.0,1.05,0.95,1.1,0.9
130,'B130',138.0,1,1,2,1,1.0,0.0,1.05,0.95,1.1,0.9
131,'B131',138.0,2,1,2,1,1.0,0.0,1.05,0.95,1.1,0.9
132,'B132',138.0,1,1,2,1,1.0,0.0,1.05,0.95,1.1,0.9
133,'B133',138.0,2,1,2,1,1.0,0.0,1.05,0.95,1.1,0.9
134,'B134',138.0,2,1,2,1,1.0,0.0,1.05,0.95,1.1,0.9
135,'B135',138.0,1,1,2,1,1.0,0.0,1.05,0.95,1.1,0.9
136,'B136',138.0,1,1,2,1,1.0,0.0,1.05,0.95,1.1,0.9
137,'B137',138.0,1,1,2,1,1.0,0.0,1.05,0.95,1.1,0.9
138,'B138',138.0,1,1,2,1,1.0,0.0,1.05,0.95,1.1,0.9
139,'B139',138.0,1,1,2,1,1.0,0.0,1.05,0.95,1.1,0.9
140,'B140',138.0,1,1,2,1,1.0,0.0,1.05,0.95,1.1,0.9
141,'B141',138.0,1,1,2,1,1.0,0.0,1.05,0.95,1.1,0.9
142,'B142',138.0,1,1,2,1,1.0,0.0,1.05,0.95,1.1,0.9
143,'B143',138.0,1,1,2,1,1.0,0.0,1.05,0.95,1.1,0.9
144,'B144',138.0,1,1,2,1,1.0,0.0,1.05,0.95,1.1,0.9
145,'B145',138.0,1,1,2,1,1.0,0.0,1.05,0.95,1.1,0.9
146,'B146',138.0,1,1,2,1,1.0,0.0,1.05,0.95,1.1,0.9
147,'B147',138.0,1,1,2,1,1.0,0.0,1.05,0.95,1.1,0.9
148,'B148',138.0,1,1,2,1,1.0,0.0,1.05,0.95,1.1,0.9
149,'B149',138.0,1,1,2,1,1.0,0.0,1.05,0.95,1.1,0.9
150,'B150',138.0,1,1,2,1,1.0,0.0,1.05,0.95,1.1,0.9
151,'B151',138.0,2,1,2,1,1.0,0.0,1.05,0.95,1.1,0.9
152,'B152',138.0,2,1,2,1,1.0,0.0,1.05,0.95,1.1,0.9
153,'B153',138.0,1,1,2,1,1.0,0.0,1.05,0.95,1.1,0.9
154,'B154',138.0,1,1,2,1,1.0,0.0,1.05,0.95,1.1,0.9
155,'B155',138.0,1,1,2,1,1.0,0.0,1.05,0.95,1.1,0.9
156,'B156',138.0,2,1,2,1,1.0,0.0,1.05,0.95,1.1,0.9
157,'B157',138.0,1,1,2,1,1.0,0.0,1.05,0.95,1.1,0.9
158,'B158',138.0,1,1,2,1,1.0,0.0,1.05,0.95,1.1,0.9
159,'B159',138.0,2,1,2,1,1.0,0.0,1.05,0.95,1.1,0.9
160,'B160',138.0,1,1,2,1,1.0,0.0,1.05,0.95,1.1,0.9
161,'B161',138.0,1,1,2,1,1.0,0.0,1.05,0.95,1.1,0.9
162,'B162',138.0,1,1,2,1,1.0,0.0,1.05,0.95,1.1,0.9
163,'B163',138.0,1,1,2,1,1.0,0.0,1.05,0.95,1.1,0.9
164,'B164',138.0,1,1,2,1,1.0,0.0,1.05,0.95,1.1,0.9
165,'B165',138.0,1,1,2,1,1.0,0.0,1.05,0.95,1.1,0.9
166,'B166',138.0,1,1,2,1,1.0,0.0,1.05,0.95,1.1,0.9
167,'B167',138.0,1,1,2,1,1.0,0.0,1.05,0.95,1.1,0.9
168,'B168',138.0,1,1,2,1,1.0,0.0,1.05,0.95,1.1,0.9
169,'B169',138.0,1,1,2,1,1.0,0.0,1.05,0.95,1.1,0.9
170,'B170',138.0,1,1,2,1,1.0,0.0,1.05,0.95,1.1,0.9
171,'B171',138.0,1,1,2,1,1.0,0.0,1.05,0.95,1.1,0.9
172,'B172',138.0,1,1,2,1,1.0,0.0,1.05,0.95,1.1,0.9
173,'B173',138.0,1,1,2,1,1.0,0.0,1.05,0.95,1.1,0.9
174,'B174',138.0,1,1,2,1,1.0,0.0,1.05,0.95,1.1,0.9
175,'B175',138.0,1,1,2,1,1.0,0.0,1.05,0.95,1.1,0.9
176,'B176',138.0,1,1,2,1,1.0,0.0,1.05,0.95,1.1,0.9
177,'B177',138.0,1,1,2,1,1.0,0.0,1.05,0.95,1.1,0.9
178,'B178',138.0,1,1,2,1,1.0,0.0,1.05,0.95,1.1,0.9
179,'B179',138.0,1,1,2,1,1.0,0.0,1.05,0.95,1.1,0.9
180,'B180',138.0,1,1,2,1,1.0,0.0,1.05,0.95,1.1,0.9
181,'B181',138.0,1,1,2,1,1.0,0.0,1.05,0.95,1.1,0.9
182,'B182',138.0,1,1,2,1,1.0,0.0,1.05,0.95,1.1,0.9
183,'B183',138.0,1,1,2,1,1.0,0.0,1.05,0.95,1.1,0.9
184,'B184',138.0,1,1,2,1,1.0,0.0,1.05,0.95,1.1,0.9
185,'B185',138.0,1,1,2,1,1.0,0.0,1.05,0.95,1.1,0.9
186,'B186',138.0,1,1,2,1,1.0,0.0,1.05,0.95,1.1,0.9
187,'B187',138.0,1,1,2,1,1.0,0.0,1.05,0.95,1.1,0.9
188,'B188',138.0,1,1,2,1,1.0,0.0,1.05,0.95,1.1,0.9
189,'B189',138.0,1,1,2,1,1.0,0.0,1.05,0.95,1.1,0.9
190,'B190',138.0,2,1,2,1,1.0,0.0,1.05,0.95,1.1,0.9
191,'B191',138.0,1,1,2,1,1.0,0.0,1.05,0.95,1.1,0.9
192,'B192',138.0,1,1,2,1,1.0,0.0,1.05,0.95,1.1,0.9
193,'B193',138.0,1,1,2,1,1.0,0.0,1.05,0.95,1.1,0.9
194,'B194',138.0,1,1,2,1,1.0,0.0,1.05,0.95,1.1,0.9
195,'B195',138.0,1,1,2,1,1.0,0.0,1.05,0.95,1.1,0.9
196,'B196',138.0,1,1,2,1,1.0,0.0,1.05,0.95,1.1,0.9
197,'B197',138.0,1,1,2,1,1.0,0.0,1.05,0.95,1.1,0.9
198,'B198',138.0,1,1,2,1,1.0,0.0,1.05,0.95,1.1,0.9
199,'B199',138.0,1,1,2,1,1.0,0.0,1.05,0.95,1.1,0.9
200,'B200',138.0,1,1,2,1,1.0,0.0,1.05,0.95,1.1,0.9
201,'B201',138.0,1,1,2,1,1.0,0.0,1.05,0.95,1.1,0.9
202,'B202',138.0,1,1,2,1,1.0,0.0,1.05,0.95,1.1,0.9
203,'B203',138.0,1,1,2,1,1.0,0.0,1.05,0.95,1.1,0.9
204,'B204',138.0,1,1,2,1,1.0,0.0,1.05,0.95,1.1,0.9
...
0 / end bus section
290,'1',1,1,5,2.797,2.777,0.0,0.0,0.0,0.0,1,1,0
208,'99',1,1,4,34.582,-1.698,0.0,0.0,0.0,0.0,1,1,0
757,'1',1,1,1,0.0,0.0,0.0,0.0,0.0,0.0,1,1,0
453,'1',1,1,3,0.795,0.241,0.0,0.0,0.0,0.0,1,1,0
650,'1',1,1,7,8.191,1.328,0.0,0.0,0.0,0.0,1,1,0
598,'1',1,1,8,6.601,2.103,0.0,0.0,0.0,0.0,1,1,0
726,'99',1,1,2,34.668,8.507,0.0,0.0,0.0,0.0,1,1,0
658,'1',1,1,7,2.626,1.006,0.0,0.0,0.0,0.0,1,1,0
729,'1',1,1,2,10.434,3.482,0.0,0.0,0.0,0.0,1,1,0
342,'99',1,1,5,99.041,12.689,0.0,0.0,0.0,0.0,1,1,0
626,'1',1,1,8,14.761,3.129,0.0,0.0,0.0,0.0,1,1,0
457,'1',1,1,3,18.856,6.701,0.0,0.0,0.0,0.0,1,1,0
286,'1',1,1,5,1.429,2.848,0.0,0.0,0.0,0.0,1,1,0
757,'99',1,1,1,22.169,-7.961,0.0,0.0,0.0,0.0,1,1,0
396,'1',1,1,6,4.246,1.006,0.0,0.0,0.0,0.0,1,1,0
378,'99',1,1,6,67.452,34.196,0.0,0.0,0.0,0.0,1,1,0
465,'1',1,1,3,7.939,2.495,0.0,0.0,0.0,0.0,1,1,0
683,'99',1,1,7,69.086,4.999,0.0,0.0,0.0,0.0,1,1,0
441,'1',1,1,3,14.751,7.054,0.0,0.0,0.0,0.0,1,1,0
656,'99',1,1,7,3.971,20.955,0.0,0.0,0.0,0.0,1,1,0
193,'1',1,1,4,4.629,1.64,0.0,0.0,0.0,0.0,1,1,0
12,'1',1,1,11,9.801,6.44,0.0,0.0,0.0,0.0,1,1,0
672,'1',1,1,7,5.766,1.006,0.0,0.0,0.0,0.0,1,1,0
606,'99',1,1,8,12.581,-0.96,0.0,0.0,0.0,0.0,1,1,0
501,'1',1,1,10,30.127,5.002,0.0,0.0,0.0,0.0,1,1,0
308,'99',1,1,5,100.983,-26.127,0.0,0.0,0.0,0.0,1,1,0
732,'1',1,1,2,3.663,1.238,0.0,0.0,0.0,0.0,1,1,0
511,'1',1,1,10,46.352,23.975,0.0,0.0,0.0,0.0,1,1,0
237,'1',1,1,9,3.874,1.006,0.0,0.0,0.0,0.0,1,1,0
324,'1',1,1,5,9.66,3.985,0.0,0.0,0.0,0.0,1,1,0
521,'1',1,1,10,31.898,12.876,0.0,0.0,0.0,0.0,1,1,0
263,'1',1,1,9,1.187,0.302,0.0,0.0,0.0,0.0,1,1,0
716,'1',1,1,2,7.848,2.576,0.0,0.0,0.0,0.0,1,1,0
58,'99',0,1,11,10.106,10.951,0.0,0.0,0.0,0.0,1,1,0
616,'1',1,1,8,13.141,0.0,0.0,0.0,0.0,0.0,1,1,0
221,'1',1,1,9,32.36,52.394,0.0,0.0,0.0,0.0,1,1,0
625,'1',1,1,8,0.01,0.0,0.0,0.0,0.0,0.0,1,1,0
229,'99',1,1,9,14.132,25.695,0.0,0.0,0.0,0.0,1,1,0
531,'1',1,1,10,45.147,4.927,0.0,0.0,0.0,0.0,1,1,0
778,'1',1,1,1,4.951,1.64,0.0,0.0,0.0,0.0,1,1,0
344,'1',1,1,5,4.739,2.988,0.0,0.0,0.0,0.0,1,1,0
736,'1',1,1,2,12.266,3.985,0.0,0.0,0.0,0.0,1,1,0
241,'1',1,1,9,4.669,0.402,0.0,0.0,0.0,0.0,1,1,0
328,'1',1,1,5,1.892,0.664,0.0,0.0,0.0,0.0,1,1,0
267,'1',1,1,5,14.781,7.033,0.0,0.0,0.0,0.0,1,1,0
80,'1',1,1,11,0.906,0.543,0.0,0.0,0.0,0.0,1,1,0
56,'1',1,1,11,6.299,5.826,0.0,0.0,0.0,0.0,1,1,0
132,'1',1,1,4,5.263,1.821,0.0,0.0,0.0,0.0,1,1,0
251,'1',1,1,9,18.635,12.326,0.0,0.0,0.0,0.0,1,1,0
64,'1',1,1,11,8.523,7.557,0.0,0.0,0.0,0.0,1,1,0
414,'1',1,1,6,30.629,4.246,0.0,0.0,0.0,0.0,1,1,0
195,'99',0,1,4,18.155,5.789,0.0,0.0,0.0,0.0,1,1,0
303,'1',1,1,5,9.358,5.735,0.0,0.0,0.0,0.0,1,1,0
606,'1',1,1,8,11.531,3.793,0.0,0.0,0.0,0.0,1,1,0
619,'1',1,1,8,12.135,-0.141,0.0,0.0,0.0,0.0,1,1,0
482,'1',1,1,10,20.678,7.119,0.0,0.0,0.0,0.0,1,1,0
311,'1',1,1,5,7.305,2.355,0.0,0.0,0.0,0.0,1,1,0
142,'1',1,1,4,8.17,2.777,0.0,0.0,0.0,0.0,1,1,0
645,'1',1,1,7,11.068,40.249,0.0,0.0,0.0,0.0,1,1,0
595,'1',1,1,8,6.078,2.435,0.0,0.0,0.0,0.0,1,1,0
534,'1',1,1,10,45.147,15.479,0.0,0.0,0.0,0.0,1,1,0
100,'1',1,1,4,8.05,21.131,0.0,0.0,0.0,0.0,1,1,0
603,'1',1,1,8,25.135,23.334,0.0,0.0,0.0,0.0,1,1,0
39,'1',1,1,11,17.448,7.023,0.0,0.0,0.0,0.0,1,1,0
382,'1',1,1,6,5.252,2.123,0.0,0.0,0.0,0.0,1,1,0
108,'1',1,1,4,7.748,2.576,0.0,0.0,0.0,0.0,1,1,0
84,'1',1,1,11,8.714,0.553,0.0,0.0,0.0,0.0,1,1,0
610,'99',1,1,8,8.748,-0.304,0.0,0.0,0.0,0.0,1,1,0
313,'99',1,1,5,16.463,5.354,0.0,0.0,0.0,0.0,1,1,0
631,'99',0,1,7,89.792,28.552,0.0,0.0,0.0,0.0,1,1,0
751,'1',1,1,1,6.349,2.214,0.0,0.0,0.0,0.0,1,1,0
452,'1',1,1,3,5.957,4.025,0.0,0.0,0.0,0.0,1,1,0
649,'1',1,1,7,14.741,1.006,0.0,0.0,0.0,0.0,1,1,0
341,'1',1,1,5,5.011,1.117,0.0,0.0,0.0,0.0,1,1,0
428,'99',0,1,3,19.144,-7.402,0.0,0.0,0.0,0.0,1,1,0
401,'1',1,1,6,16.884,6.369,0.0,0.0,0.0,0.0,1,1,0
381,'99',1,1,6,19.059,6.303,0.0,0.0,0.0,0.0,1,1,0
301,'99',1,1,5,5.236,2.275,0.0,0.0,0.0,0.0,1,1,0
411,'1',1,1,6,8.392,3.129,0.0,0.0,0.0,0.0,1,1,0
456,'1',1,1,3,18.856,6.701,0.0,0.0,0.0,0.0,1,1,0
198,'1',1,1,4,3.874,1.389,0.0,0.0,0.0,0.0,1,1,0
61,'1',1,1,11,3.773,-0.463,0.0,0.0,0.0,0.0,1,1,0
395,'1',1,1,6,9.509,2.626,0.0,0.0,0.0,0.0,1,1,0
353,'1',1,1,5,14.872,7.949,0.0,0.0,0.0,0.0,1,1,0
184,'1',1,1,4,3.663,1.238,0.0,0.0,0.0,0.0,1,1,0
260,'1',1,1,9,3.572,0.604,0.0,0.0,0.0,0.0,1,1,0
455,'1',1,1,3,10.424,4.125,0.0,0.0,0.0,0.0,1,1,0
652,'1',1,1,7,4.246,1.006,0.0,0.0,0.0,0.0,1,1,0
431,'1',1,1,3,4.055,1.006,0.0,0.0,0.0,0.0,1,1,0
157,'1',1,1,4,2.958,1.258,0.0,0.0,0.0,0.0,1,1,0
500,'1',1,1,10,30.127,3.635,0.0,0.0,0.0,0.0,1,1,0
439,'1',1,1,3,9.277,3.019,0.0,0.0,0.0,0.0,1,1,0
220,'99',0,1,9,659.876,-1.015,0.0,0.0,0.0,0.0,1,1,0
536,'1',1,1,10,30.567,8.355,0.0,0.0,0.0,0.0,1,1,0
662,'1',1,1,7,16.884,4.749,0.0,0.0,0.0,0.0,1,1,0
228,'1',1,1,9,39.041,-2.717,0.0,0.0,0.0,0.0,1,1,0
731,'1',1,1,2,3.009,0.805,0.0,0.0,0.0,0.0,1,1,0
236,'1',1,1,9,7.748,20.124,0.0,0.0,0.0,0.0,1,1,0
459,'1',1,1,3,7.939,2.415,0.0,0.0,0.0,0.0,1,1,0
793,'1',1,1,1,0.755,0.302,0.0,0.0,0.0,0.0,1,1,0
151,'1',1,1,4,19.028,30.398,0.0,0.0,0.0,0.0,1,1,0
298,'1',1,1,5,10.575,3.683,0.0,0.0,0.0,0.0,1,1,0
767,'1',1,1,1,7.848,2.576,0.0,0.0,0.0,0.0,1,1,0
580,'1',1,1,8,12.075,30.186,0.0,0.0,0.0,0.0,1,1,0
690,'1',1,1,7,11.622,1.006,0.0,0.0,0.0,0.0,1,1,0
777,'1',1,1,1,3.23,1.238,0.0,0.0,0.0,0.0,1,1,0
469,'1',1,1,3,19.853,8.06,0.0,0.0,0.0,0.0,1,1,0
506,'2',1,1,10,34.169,4.274,0.0,0.0,0.0,0.0,1,1,0
477,'1',1,1,3,1.982,0.604,0.0,0.0,0.0,0.0,1,1,0
674,'1',1,1,7,9.509,2.626,0.0,0.0,0.0,0.0,1,1,0
240,'1',1,1,9,4.468,1.107,0.0,0.0,0.0,0.0,1,1,0
688,'1',1,1,7,30.629,4.246,0.0,0.0,0.0,0.0,1,1,0
318,'1',1,1,5,7.607,2.747,0.0,0.0,0.0,0.0,1,1,0
44,'1',1,1,11,8.875,2.254,0.0,0.0,0.0,0.0,1,1,0
131,'1',1,1,4,80.497,39.242,0.0,0.0,0.0,0.0,1,1,0
250,'1',1,1,9,0.151,0.674,0.0,0.0,0.0,0.0,1,1,0
497,'1',1,1,10,42.701,19.523,0.0,0.0,0.0,0.0,1,1,0
302,'1',1,1,5,4.749,3.31,0.0,0.0,0.0,0.0,1,1,0
115,'1',1,1,4,4.84,1.741,0.0,0.0,0.0,0.0,1,1,0
618,'1',1,1,8,12.135,2.626,0.0,0.0,0.0,0.0,1,1,0
481,'1',1,1,10,29.368,6.037,0.0,0.0,0.0,0.0,1,1,0
54,'1',1,1,11,14.359,-1.087,0.0,0.0,0.0,0.0,1,1,0
780,'1',1,1,1,10.434,3.482,0.0,0.0,0.0,0.0,1,1,0
99,'1',1,1,4,7.044,18.112,0.0,0.0,0.0,0.0,1,1,0
680,'1',1,1,7,7.376,2.123,0.0,0.0,0.0,0.0,1,1,0
285,'1',1,1,5,2.163,2.002,0.0,0.0,0.0,0.0,1,1,0
225,'99',1,1,9,376.368,85.112,0.0,0.0,0.0,0.0,1,1,0
664,'1',1,1,7,4.246,0.503,0.0,0.0,0.0,0.0,1,1,0
269,'1',1,1,5,-8.633,1.529,0.0,0.0,0.0,0.0,1,1,0
82,'1',1,1,11,7.023,0.543,0.0,0.0,0.0,0.0,1,1,0
169,'1',1,1,4,2.586,0.936,0.0,0.0,0.0,0.0,1,1,0
392,'1',1,1,6,7.587,1.006,0.0,0.0,0.0,0.0,1,1,0
253,'1',1,1,9,8.734,1.006,0.0,0.0,0.0,0.0,1,1,0
340,'1',1,1,5,0.02,2.012,0.0,0.0,0.0,0.0,1,1,0
400,'1',1,1,6,8.392,2.727,0.0,0.0,0.0,0.0,1,1,0
279,'1',1,1,5,7.436,3.099,0.0,0.0,0.0,0.0,1,1,0
621,'1',1,1,8,13.745,2.626,0.0,0.0,0.0,0.0,1,1,0
582,'99',1,1,8,26.057,59.642,0.0,0.0,0.0,0.0,1,1,0
128,'1',1,1,4,1.006,0.382,0.0,0.0,0.0,0.0,1,1,0
410,'1',1,1,6,10.515,1.006,0.0,0.0,0.0,0.0,1,1,0
386,'99',0,1,6,8.146,-6.062,0.0,0.0,0.0,0.0,1,1,0
524,'2',1,1,10,42.848,16.283,0.0,0.0,0.0,0.0,1,1,0
667,'1',1,1,7,14.761,3.129,0.0,0.0,0.0,0.0,1,1,0
350,'2',1,1,5,21.815,1.459,0.0,0.0,0.0,0.0,1,1,0
615,'1',1,1,8,4.246,0.503,0.0,0.0,0.0,0.0,1,1,0
446,'1',1,1,3,4.961,1.409,0.0,0.0,0.0,0.0,1,1,0
259,'1',1,1,9,2.385,0.604,0.0,0.0,0.0,0.0,1,1,0
454,'1',1,1,3,10.424,4.125,0.0,0.0,0.0,0.0,1,1,0
148,'1',1,1,4,6.571,2.807,0.0,0.0,0.0,0.0,1,1,0
651,'1',1,1,7,14.258,4.246,0.0,0.0,0.0,0.0,1,1,0
430,'1',1,1,3,2.838,0.0,0.0,0.0,0.0,0.0,1,1,0
243,'1',1,1,9,19.641,11.3,0.0,0.0,0.0,0.0,1,1,0
527,'1',1,1,10,42.848,6.476,0.0,0.0,0.0,0.0,1,1,0
224,'99',1,1,9,1010.826,165.77,0.0,0.0,0.0,0.0,1,1,0
711,'1',1,1,2,1.61,0.503,0.0,0.0,0.0,0.0,1,1,0
661,'1',1,1,7,15.767,5.252,0.0,0.0,0.0,0.0,1,1,0
474,'1',1,1,3,8.07,2.012,0.0,0.0,0.0,0.0,1,1,0
166,'1',1,1,4,0.533,0.312,0.0,0.0,0.0,0.0,1,1,0
413,'1',1,1,6,14.761,3.129,0.0,0.0,0.0,0.0,1,1,0
458,'1',1,1,3,7.939,2.415,0.0,0.0,0.0,0.0,1,1,0
397,'1',1,1,6,4.749,1.006,0.0,0.0,0.0,0.0,1,1,0
301,'2',1,1,5,-2.294,2.173,0.0,0.0,0.0,0.0,1,1,0
689,'1',1,1,7,19.007,4.749,0.0,0.0,0.0,0.0,1,1,0
15,'1',1,1,11,13.071,3.371,0.0,0.0,0.0,0.0,1,1,0
381,'1',1,1,6,16.884,3.844,0.0,0.0,0.0,0.0,1,1,0
468,'1',1,1,3,5.957,1.63,0.0,0.0,0.0,0.0,1,1,0
226,'99',1,1,9,71.748,59.12,0.0,0.0,0.0,0.0,1,1,0
441,'99',1,1,3,19.195,2.839,0.0,0.0,0.0,0.0,1,1,0
417,'1',1,1,6,17.891,4.246,0.0,0.0,0.0,0.0,1,1,0
749,'1',1,1,1,8.05,21.131,0.0,0.0,0.0,0.0,1,1,0
256,'1',1,1,9,5.655,1.207,0.0,0.0,0.0,0.0,1,1,0
775,'1',1,1,1,6.42,2.787,0.0,0.0,0.0,0.0,1,1,0
725,'1',1,1,2,8.362,3.703,0.0,0.0,0.0,0.0,1,1,0
733,'1',1,1,2,4.297,1.56,0.0,0.0,0.0,0.0,1,1,0
43,'1',1,1,11,2.012,0.453,0.0,0.0,0.0,0.0,1,1,0
496,'1',1,1,10,40.57,7.997,0.0,0.0,0.0,0.0,1,1,0
181,'1',1,1,4,4.568,1.902,0.0,0.0,0.0,0.0,1,1,0
738,'1',1,1,2,2.908,1.046,0.0,0.0,0.0,0.0,1,1,0
548,'1',1,1,10,8.63,5.39,0.0,0.0,0.0,0.0,1,1,0
795,'1',1,1,1,0.533,0.302,0.0,0.0,0.0,0.0,1,1,0
53,'1',1,1,11,7.023,0.543,0.0,0.0,0.0,0.0,1,1,0
387,'1',1,1,6,16.884,4.749,0.0,0.0,0.0,0.0,1,1,0
753,'1',1,1,1,23.757,21.231,0.0,0.0,0.0,0.0,1,1,0
294,'2',1,1,5,6.822,1.992,0.0,0.0,0.0,0.0,1,1,0
2,'1',1,1,11,8.915,1.982,0.0,0.0,0.0,0.0,1,1,0
345,'1',1,1,5,8.965,5.846,0.0,0.0,0.0,0.0,1,1,0
471,'1',1,1,3,0.0,0.0,0.0,0.0,0.0,0.0,1,1,0
284,'1',1,1,5,5.987,1.942,0.0,0.0,0.0,0.0,1,1,0
763,'1',1,1,1,1.932,0.604,0.0,0.0,0.0,0.0,1,1,0
236,'99',1,1,9,312.719,-12.873,0.0,0.0,0.0,0.0,1,1,0
707,'99',1,1,2,25.019,-7.852,0.0,0.0,0.0,0.0,1,1,0
57,'1',1,1,11,7.215,-0.272,0.0,0.0,0.0,0.0,1,1,0
304,'1',1,1,5,18.937,2.817,0.0,0.0,0.0,0.0,1,1,0
252,'1',1,1,9,14.178,6.168,0.0,0.0,0.0,0.0,1,1,0
159,'1',1,1,4,14.64,0.553,0.0,0.0,0.0,0.0,1,1,0
620,'1',1,1,8,13.141,3.129,0.0,0.0,0.0,0.0,1,1,0
451,'1',1,1,3,23.123,7.044,0.0,0.0,0.0,0.0,1,1,0
390,'1',1,1,6,13.745,2.626,0.0,0.0,0.0,0.0,1,1,0
596,'1',1,1,8,19.339,33.105,0.0,0.0,0.0,0.0,1,1,0
216,'99',1,1,9,77.878,45.33,0.0,0.0,0.0,0.0,1,1,0
...
0 / end load section
376,'1',1,0.0,-9.534
631,'1',1,0.0,30.406
386,'1',1,0.0,-5.842
444,'1',1,0.0,19.281
684,'1',1,0.0,0.059
642,'1',1,0.0,88.396
36,'1',1,0.0,-4.438
748,'1',1,0.0,-19.101
624,'1',1,0.0,6.887
743,'1',1,0.0,-1.15
428,'1',1,0.0,-7.317
591,'1',1,0.0,22.609
791,'1',1,0.0,0.336
2,'1',1,0.0,15.498
156,'1',1,0.0,40.892
696,'1',1,0.0,-1.903
442,'1',1,0.0,-7.663
576,'1',1,0.0,-63.285
149,'1',1,0.0,-8.091
81,'1',1,0.0,21.502
363,'1',1,0.0,24.399
98,'1',1,0.0,-24.285
697,'1',1,0.0,-37.362
304,'1',1,0.0,2.218
133,'1',1,0.0,-1.321
380,'1',1,0.0,11.017
595,'1',1,0.0,6.261
525,'1',1,0.0,100.748
100,'1',1,0.0,4.571
653,'1',1,0.0,26.664
364,'1',1,0.0,-71.188
195,'1',1,0.0,5.562
58,'1',1,0.0,10.592
143,'1',1,0.0,1.197
390,'1',1,0.0,12.518
23,'1',1,0.0,-120.31
357,'1',1,0.0,-30.025
348,'1',1,0.0,5.534
623,'1',1,0.0,-2.498
220,'1',1,0.0,-1.094
639,'1',1,0.0,-66.624
443,'1',1,0.0,12.284
137,'1',1,0.0,-13.204
640,'1',1,0.0,-75.05
460,'1',1,0.0,32.216
794,'1',1,0.0,-2.22
145,'1',1,0.0,16.36
367,'1',1,0.0,60.608
102,'1',1,0.0,-43.607
0 / end fixed shunt section
345,'99',0.0,0.0,600.0,-600.0,1.0278,0,100.0,0.0,1.0,0.0,0.0,1.0,1,100.0,34.101,0.0,1,1.0,0,1.0,0,1.0,0,1.0,0,1.0
357,'99',0.0,0.0,33.333,-33.333,1.01,0,100.0,0.0,1.0,0.0,0.0,1.0,0,100.0,137.965,122.965,1,1.0,0,1.0,0,1.0,0,1.0,0,1.0
650,'1',0.0,0.0,18.333,-18.333,1.01909,0,100.0,0.0,0.2,0.0,0.0,1.0,0,100.0,55.0,26.0,1,1.0,0,1.0,0,1.0,0,1.0,0,1.0
25,'2',0.0,0.0,22.5,-22.5,0.9534,0,100.0,0.0,0.165,0.0,0.0,1.0,0,100.0,60.43,14.25,1,1.0,0,1.0,0,1.0,0,1.0,0,1.0
223,'1',0.0,0.0,981.927,-981.927,1.012,0,100.0,0.0,0.235,0.0,0.0,1.0,1,100.0,1363.788,350.876,1,1.0,0,1.0,0,1.0,0,1.0,0,1.0
667,'1',0.0,0.0,267.3,-267.3,1.02182,0,100.0,0.0,0.2,0.0,0.0,1.0,1,100.0,371.25,0.0,1,1.0,0,1.0,0,1.0,0,1.0,0,1.0
576,'99',0.0,0.0,33.333,-33.333,1.01,0,100.0,0.0,1.0,0.0,0.0,1.0,0,100.0,85.769,70.769,1,1.0,0,1.0,0,1.0,0,1.0,0,1.0
690,'98',0.0,0.0,566.0,-566.0,1.02182,0,100.0,0.0,0.1,0.0,0.0,1.0,1,100.0,12.5,0.0,1,1.0,0,1.0,0,1.0,0,1.0,0,1.0
684,'1',0.0,0.0,265.5,-265.5,1.02455,0,100.0,0.0,0.2,0.0,0.0,1.0,1,100.0,368.75,0.0,1,1.0,0,1.0,0,1.0,0,1.0,0,1.0
474,'99',0.0,0.0,600.0,-600.0,1.0201,0,100.0,0.0,1.0,0.0,0.0,1.0,1,100.0,83.147,0.0,1,1.0,0,1.0,0,1.0,0,1.0,0,1.0
625,'1',0.0,0.0,184.0,-176.0,1.02727,0,100.0,0.0,0.2,0.0,0.0,1.0,1,100.0,62.5,0.0,1,1.0,0,1.0,0,1.0,0,1.0,0,1.0
623,'99',0.0,0.0,33.333,-33.333,1.03915,0,100.0,0.0,1.0,0.0,0.0,1.0,0,100.0,259.0,5.802,1,1.0,0,1.0,0,1.0,0,1.0,0,1.0
660,'1',0.0,0.0,185.0,-167.0,1.02455,0,100.0,0.0,0.2,0.0,0.0,1.0,0,100.0,27.5,0.0,1,1.0,0,1.0,0,1.0,0,1.0,0,1.0
152,'2',0.0,0.0,36.667,-36.667,1.02455,0,100.0,0.0,0.18,0.0,0.0,1.0,0,100.0,110.0,79.0,1,1.0,0,1.0,0,1.0,0,1.0,0,1.0
221,'2',0.0,0.0,123.333,-123.333,1.02864,0,100.0,0.0,0.21,0.0,0.0,1.0,0,100.0,370.0,240.0,1,1.0,0,1.0,0,1.0,0,1.0,0,1.0
646,'1',0.0,0.0,161.1,-161.1,1.01125,0,100.0,0.0,0.18,0.0,0.0,1.0,1,100.0,223.75,-200.0,1,1.0,0,1.0,0,1.0,0,1.0,0,1.0
794,'99',0.0,0.0,33.333,-33.333,1.02265,0,100.0,0.0,1.0,0.0,0.0,1.0,0,100.0,294.0,4.745,1,1.0,0,1.0,0,1.0,0,1.0,0,1.0
659,'1',0.0,0.0,190.0,-183.0,1.02182,0,100.0,0.0,0.2,0.0,0.0,1.0,1,100.0,22.5,0.0,1,1.0,0,1.0,0,1.0,0,1.0,0,1.0
364,'99',0.0,0.0,33.333,-33.333,1.00286,0,100.0,0.0,1.0,0.0,0.0,1.0,0,100.0,42.029,27.029,1,1.0,0,1.0,0,1.0,0,1.0,0,1.0
719,'2',0.0,0.0,36.667,-36.667,1.02455,0,100.0,0.0,0.18,0.0,0.0,1.0,0,100.0,110.0,79.0,1,1.0,0,1.0,0,1.0,0,1.0,0,1.0
296,'1',0.0,0.0,76.667,-76.667,1.0259,322,100.0,0.0023,0.168,0.0,0.0,1.025,0,100.0,173.25,117.8,1,1.0,0,1.0,0,1.0,0,1.0,0,1.0
190,'99',0.0,0.0,600.0,-600.0,1.033,0,100.0,0.0,1.0,0.0,0.0,1.0,1,100.0,99.579,0.0,1,1.0,0,1.0,0,1.0,0,1.0,0,1.0
789,'99',0.0,0.0,600.0,-600.0,1.018,0,100.0,0.0,1.0,0.0,0.0,1.0,1,100.0,58.415,0.0,1,1.0,0,1.0,0,1.0,0,1.0,0,1.0
376,'99',0.0,0.0,33.333,-33.333,1.02727,0,100.0,0.0,1.0,0.0,0.0,1.0,0,100.0,261.0,3.293,1,1.0,0,1.0,0,1.0,0,1.0,0,1.0
221,'3',0.0,0.0,388.125,-388.125,1.02864,0,100.0,0.0,0.21,0.0,0.0,1.0,0,100.0,539.062,240.0,1,1.0,0,1.0,0,1.0,0,1.0,0,1.0
223,'3',0.0,0.0,981.927,-981.927,1.012,0,100.0,0.0,0.235,0.0,0.0,1.0,1,100.0,1363.788,350.876,1,1.0,0,1.0,0,1.0,0,1.0,0,1.0
738,'99',0.0,0.0,600.0,-600.0,1.018,0,100.0,0.0,1.0,0.0,0.0,1.0,1,100.0,58.415,0.0,1,1.0,0,1.0,0,1.0,0,1.0,0,1.0
611,'1',0.0,0.0,197.0,-168.0,1.02727,0,100.0,0.0,0.2,0.0,0.0,1.0,0,100.0,32.5,0.0,1,1.0,0,1.0,0,1.0,0,1.0,0,1.0
268,'99',0.0,0.0,600.0,-600.0,1.018,0,100.0,0.0,1.0,0.0,0.0,1.0,1,100.0,501.5,0.0,1,1.0,0,1.0,0,1.0,0,1.0,0,1.0
698,'1',0.0,0.0,129.375,-129.375,1.02455,0,100.0,0.0,0.18,0.0,0.0,1.0,0,100.0,179.688,70.0,1,1.0,0,1.0,0,1.0,0,1.0,0,1.0
422,'99',0.0,0.0,600.0,-600.0,1.01,0,100.0,0.0,1.0,0.0,0.0,1.0,1,100.0,146.553,0.0,1,1.0,0,1.0,0,1.0,0,1.0,0,1.0
706,'1',0.0,0.0,45.0,-45.0,1.02455,0,100.0,0.0,0.18,0.0,0.0,1.0,0,100.0,135.0,35.0,1,1.0,0,1.0,0,1.0,0,1.0,0,1.0
25,'1',0.0,0.0,22.5,-22.5,0.9534,0,100.0,0.0,0.165,0.0,0.0,1.0,0,100.0,280.0,0.0,1,1.0,0,1.0,0,1.0,0,1.0,0,1.0
304,'99',0.0,0.0,33.333,-33.333,1.01312,0,100.0,0.0,1.0,0.0,0.0,1.0,0,100.0,44.434,29.434,1,1.0,0,1.0,0,1.0,0,1.0,0,1.0
380,'99',0.0,0.0,33.333,-33.333,1.02669,0,100.0,0.0,1.0,0.0,0.0,1.0,0,100.0,33.035,18.035,1,1.0,0,1.0,0,1.0,0,1.0,0,1.0
791,'98',0.0,0.0,331.0,-331.0,1.01,0,100.0,0.0,1.0,0.0,0.0,1.0,1,100.0,347.5,0.0,1,1.0,0,1.0,0,1.0,0,1.0,0,1.0
428,'2',0.0,0.0,239.4,-239.4,1.01364,0,100.0,0.0,0.2,0.0,0.0,1.0,0,100.0,332.5,1.0,1,1.0,0,1.0,0,1.0,0,1.0,0,1.0
645,'2',0.0,0.0,228.333,-228.333,1.01125,0,100.0,0.0,0.18,0.0,0.0,1.0,0,100.0,317.129,98.483,1,1.0,0,1.0,0,1.0,0,1.0,0,1.0
674,'1',0.0,0.0,246.6,-246.6,1.02455,0,100.0,0.0,0.2,0.0,0.0,1.0,1,100.0,342.5,1.0,1,1.0,0,1.0,0,1.0,0,1.0,0,1.0
361,'99',0.0,0.0,600.0,-600.0,1.01,0,100.0,0.0,1.0,0.0,0.0,1.0,1,100.0,625.135,0.0,1,1.0,0,1.0,0,1.0,0,1.0,0,1.0
256,'1',0.0,0.0,228.6,-228.6,1.02455,0,100.0,0.0,0.2,0.0,0.0,1.0,1,100.0,317.5,0.0,1,1.0,0,1.0,0,1.0,0,1.0,0,1.0
35,'1',0.0,0.0,33.127,-33.127,1.0101,0,100.0,0.0,0.178,0.0045,0.0928,1.0,0,100.0,288.0,0.0,1,1.0,0,1.0,0,1.0,0,1.0,0,1.0
591,'99',0.0,0.0,33.333,-33.333,1.01103,0,100.0,0.0,1.0,0.0,0.0,1.0,0,100.0,74.949,59.949,1,1.0,0,1.0,0,1.0,0,1.0,0,1.0
221,'1',0.0,0.0,123.333,-123.333,1.02864,0,100.0,0.0,0.21,0.0,0.0,1.0,0,100.0,370.0,240.0,1,1.0,0,1.0,0,1.0,0,1.0,0,1.0
564,'1',0.0,0.0,117.271,-117.271,1.02214,560,100.0,0.0,0.2425,0.0,0.0,1.0,0,100.0,162.876,36.178,1,1.0,0,1.0,0,1.0,0,1.0,0,1.0
414,'1',0.0,0.0,247.5,-247.5,1.02182,0,100.0,0.0,0.2,0.0,0.0,1.0,0,100.0,343.75,0.0,1,1.0,0,1.0,0,1.0,0,1.0,0,1.0
151,'2',0.0,0.0,108.0,-108.0,0.98866,0,100.0,0.0,0.18,0.0,0.0,1.0,1,100.0,150.0,58.333,1,1.0,0,1.0,0,1.0,0,1.0,0,1.0
581,'1',0.0,0.0,77.333,-77.333,1.00975,0,100.0,0.0,0.18,0.0,0.0,1.0,0,100.0,232.0,100.0,1,1.0,0,1.0,0,1.0,0,1.0,0,1.0
444,'1',0.0,0.0,1.333,-1.333,1.01909,0,100.0,0.0,0.2,0.0,0.0,1.0,0,100.0,289.0,3.0,1,1.0,0,1.0,0,1.0,0,1.0,0,1.0
639,'99',0.0,0.0,33.333,-33.333,1.01,0,100.0,0.0,1.0,0.0,0.0,1.0,0,100.0,85.248,70.248,1,1.0,0,1.0,0,1.0,0,1.0,0,1.0
443,'99',0.0,0.0,33.333,-33.333,1.00297,0,100.0,0.0,1.0,0.0,0.0,1.0,0,100.0,29.367,14.367,1,1.0,0,1.0,0,1.0,0,1.0,0,1.0
224,'1',0.0,0.0,416.25,-416.25,1.012,0,100.0,0.0,0.21,0.0,0.0,1.0,0,100.0,578.125,240.0,1,1.0,0,1.0,0,1.0,0,1.0,0,1.0
749,'1',0.0,0.0,129.375,-129.375,1.02455,0,100.0,0.0,0.18,0.0,0.0,1.0,0,100.0,179.688,70.0,1,1.0,0,1.0,0,1.0,0,1.0,0,1.0
565,'1',0.0,0.0,117.275,-117.275,1.02214,560,100.0,0.0,0.1428,0.0,0.0,1.0,0,100.0,162.883,38.4,1,1.0,0,1.0,0,1.0,0,1.0,0,1.0
753,'1',0.0,0.0,123.75,-123.75,1.02455,0,100.0,0.0,0.18,0.0,0.0,1.0,0,100.0,171.875,32.0,1,1.0,0,1.0,0,1.0,0,1.0,0,1.0
579,'98',0.0,0.0,700.0,-700.0,1.02455,0,100.0,0.0,0.18,0.0,0.0,1.0,1,100.0,277.5,0.0,1,1.0,0,1.0,0,1.0,0,1.0,0,1.0
80,'1',0.0,0.0,9.267,-9.267,1.0166,16,100.0,0.0,0.32,0.0,0.0,1.0,0,100.0,26.25,4.75,1,1.0,0,1.0,0,1.0,0,1.0,0,1.0
471,'1',0.0,0.0,11.667,-11.667,1.01637,0,100.0,0.0,0.2,0.0,0.0,1.0,0,100.0,35.0,9.0,1,1.0,0,1.0,0,1.0,0,1.0,0,1.0
293,'1',0.0,0.0,76.667,-76.667,1.0259,322,100.0,0.0023,0.168,0.0,0.0,1.025,0,100.0,173.25,117.8,1,1.0,0,1.0,0,1.0,0,1.0,0,1.0
275,'99',0.0,0.0,600.0,-600.0,1.0185,0,100.0,0.0,1.0,0.0,0.0,1.0,1,100.0,91.321,0.0,1,1.0,0,1.0,0,1.0,0,1.0,0,1.0
568,'1',0.0,0.0,117.271,-117.271,1.02214,560,100.0,0.0,0.1301,0.0,0.0,1.0,0,100.0,162.876,52.077,1,1.0,0,1.0,0,1.0,0,1.0,0,1.0
159,'99',0.0,0.0,600.0,-600.0,1.0193,0,100.0,0.0,1.0,0.0,0.0,1.0,1,100.0,366.25,0.0,1,1.0,0,1.0,0,1.0,0,1.0,0,1.0
754,'1',0.0,0.0,37.667,-37.667,1.02455,0,100.0,0.0,0.18,0.0,0.0,1.0,0,100.0,113.0,32.0,1,1.0,0,1.0,0,1.0,0,1.0,0,1.0
35,'3',0.0,0.0,16.237,-16.237,1.0101,0,100.0,0.0,0.193,0.0016,0.0541,1.0,0,100.0,40.14,25.14,1,1.0,0,1.0,0,1.0,0,1.0,0,1.0
65,'2',0.0,0.0,9.267,-9.267,1.0166,0,100.0,0.0,0.32,0.0,0.0,1.0,0,100.0,25.2,4.75,1,1.0,0,1.0,0,1.0,0,1.0,0,1.0
743,'99',0.0,0.0,33.333,-33.333,1.02265,0,100.0,0.0,1.0,0.0,0.0,1.0,0,100.0,263.0,4.745,1,1.0,0,1.0,0,1.0,0,1.0,0,1.0
131,'2',0.0,0.0,8.333,-8.333,1.02182,0,100.0,0.0,0.2,0.0,0.0,1.0,0,100.0,25.0,10.0,1,1.0,0,1.0,0,1.0,0,1.0,0,1.0
748,'99',0.0,0.0,33.333,-33.333,1.01937,0,100.0,0.0,1.0,0.0,0.0,1.0,0,100.0,260.0,4.417,1,1.0,0,1.0,0,1.0,0,1.0,0,1.0
602,'1',0.0,0.0,192.0,-182.0,1.01091,0,100.0,0.0,0.2,0.0,0.0,1.0,0,100.0,25.0,5.0,1,1.0,0,1.0,0,1.0,0,1.0,0,1.0
390,'99',0.0,0.0,33.333,-33.333,1.0389,0,100.0,0.0,1.0,0.0,0.0,1.0,0,100.0,28.078,13.078,1,1.0,0,1.0,0,1.0,0,1.0,0,1.0
619,'1',0.0,0.0,0.333,-0.333,1.02455,0,100.0,0.0,0.2,0.0,0.0,1.0,0,100.0,252.0,0.0,1,1.0,0,1.0,0,1.0,0,1.0,0,1.0
747,'99',0.0,0.0,600.0,-600.0,1.0242,0,100.0,0.0,1.0,0.0,0.0,1.0,1,100.0,35.153,0.0,1,1.0,0,1.0,0,1.0,0,1.0,0,1.0
569,'1',0.0,0.0,117.275,-117.275,1.02214,0,100.0,0.0,0.1214,0.0,0.0,1.0,1,100.0,162.883,23.76,1,1.0,0,1.0,0,1.0,0,1.0,0,1.0
696,'99',0.0,0.0,33.333,-33.333,1.02419,0,100.0,0.0,1.0,0.0,0.0,1.0,0,100.0,28.122,13.122,1,1.0,0,1.0,0,1.0,0,1.0,0,1.0
46,'99',0.0,0.0,600.0,-600.0,1.0048,0,100.0,0.0,1.0,0.0,0.0,1.0,1,100.0,66.162,0.0,1,1.0,0,1.0,0,1.0,0,1.0,0,1.0
645,'1',0.0,0.0,228.333,-228.333,1.01125,0,100.0,0.0,0.18,0.0,0.0,1.0,1,100.0,317.129,98.483,1,1.0,0,1.0,0,1.0,0,1.0,0,1.0
481,'99',0.0,0.0,600.0,-600.0,1.0299,0,100.0,0.0,1.0,0.0,0.0,1.0,1,100.0,63.294,0.0,1,1.0,0,1.0,0,1.0,0,1.0,0,1.0
408,'1',0.0,0.0,265.5,-265.5,1.02455,0,100.0,0.0,0.2,0.0,0.0,1.0,0,100.0,368.75,0.0,1,1.0,0,1.0,0,1.0,0,1.0,0,1.0
224,'3',0.0,0.0,382.5,-382.5,1.012,0,100.0,0.0,0.21,0.0,0.0,1.0,1,100.0,531.25,240.0,1,1.0,0,1.0,0,1.0,0,1.0,0,1.0
100,'1',0.0,0.0,129.375,-129.375,1.02455,0,100.0,0.0,0.18,0.0,0.0,1.0,0,100.0,179.688,70.0,1,1.0,0,1.0,0,1.0,0,1.0,0,1.0
640,'99',0.0,0.0,33.333,-33.333,1.01,0,100.0,0.0,1.0,0.0,0.0,1.0,0,100.0,221.788,206.788,1,1.0,0,1.0,0,1.0,0,1.0,0,1.0
117,'1',0.0,0.0,37.667,-37.667,1.02455,0,100.0,0.0,0.18,0.0,0.0,1.0,0,100.0,113.0,32.0,1,1.0,0,1.0,0,1.0,0,1.0,0,1.0
620,'1',0.0,0.0,232.2,-232.2,1.02455,0,100.0,0.0,0.2,0.0,0.0,1.0,1,100.0,322.5,0.0,1,1.0,0,1.0,0,1.0,0,1.0,0,1.0
222,'2',0.0,0.0,333.0,-333.0,1.02864,0,100.0,0.0,0.21,0.0,0.0,1.0,0,100.0,462.5,240.0,1,1.0,0,1.0,0,1.0,0,1.0,0,1.0
87,'1',0.0,0.0,234.9,-234.9,1.0051,0,100.0,0.0,1.0,0.0,0.0,1.0,0,100.0,326.25,0.0,1,1.0,0,1.0,0,1.0,0,1.0,0,1.0
305,'1',0.0,0.0,76.667,-76.667,1.0259,265,100.0,0.0022,0.1728,0.0,0.0,1.025,0,100.0,173.25,117.8,1,1.0,0,1.0,0,1.0,0,1.0,0,1.0
471,'3',0.0,0.0,9.333,-9.333,1.01637,0,100.0,0.0,0.2,0.0,0.0,1.0,0,100.0,28.0,9.0,1,1.0,0,1.0,0,1.0,0,1.0,0,1.0
596,'1',0.0,0.0,199.8,-199.8,1.015,0,100.0,0.0,0.18,0.0,0.0,1.0,1,100.0,277.5,90.0,1,1.0,0,1.0,0,1.0,0,1.0,0,1.0
98,'99',0.0,0.0,33.333,-33.333,1.01935,0,100.0,0.0,1.0,0.0,0.0,1.0,0,100.0,65.268,50.268,1,1.0,0,1.0,0,1.0,0,1.0,0,1.0
469,'1',0.0,0.0,228.6,-228.6,1.01364,0,100.0,0.0,0.2,0.0,0.0,1.0,1,100.0,317.5,1.0,1,1.0,0,1.0,0,1.0,0,1.0,0,1.0
649,'1',0.0,0.0,49.5,-165.0,1.01909,0,100.0,0.0,0.2,0.0,0.0,1.0,0,100.0,68.75,26.0,1,1.0,0,1.0,0,1.0,0,1.0,0,1.0
33,'1',0.0,0.0,19.29,-19.29,1.0087,36,100.0,0.0,0.148,0.0047,0.0939,1.0,0,100.0,46.2,11.4,1,1.0,0,1.0,0,1.0,0,1.0,0,1.0
376,'1',0.0,0.0,193.0,-169.0,1.02727,0,100.0,0.0,0.2,0.0,0.0,1.0,0,100.0,32.5,0.0,1,1.0,0,1.0,0,1.0,0,1.0,0,1.0
630,'1',0.0,0.0,249.3,-249.3,1.02478,0,100.0,0.0,0.18,0.0,0.0,1.0,1,100.0,346.25,0.0,1,1.0,0,1.0,0,1.0,0,1.0,0,1.0
525,'99',0.0,0.0,33.333,-33.333,1.01822,0,100.0,0.0,1.0,0.0,0.0,1.0,0,100.0,203.917,188.917,1,1.0,0,1.0,0,1.0,0,1.0,0,1.0
131,'4',0.0,0.0,177.0,-168.0,1.02182,0,100.0,0.0,0.2,0.0,0.0,1.0,0,100.0,31.25,10.0,1,1.0,0,1.0,0,1.0,0,1.0,0,1.0
233,'99',0.0,0.0,600.0,-600.0,1.0041,0,100.0,0.0,1.0,0.0,0.0,1.0,1,100.0,221.8,0.0,1,1.0,0,1.0,0,1.0,0,1.0,0,1.0
384,'1',0.0,0.0,195.0,-169.0,1.02182,0,100.0,0.0,0.2,0.0,0.0,1.0,0,100.0,22.5,0.0,1,1.0,0,1.0,0,1.0,0,1.0,0,1.0
391,'1',0.0,0.0,266.4,-266.4,1.02182,0,100.0,0.0,0.2,0.0,0.0,1.0,1,100.0,370.0,0.0,1,1.0,0,1.0,0,1.0,0,1.0,0,1.0
370,'3',0.0,0.0,228.552,-228.552,1.01125,0,100.0,0.0,0.18,0.0,0.0,1.0,0,100.0,317.434,99.538,1,1.0,0,1.0,0,1.0,0,1.0,0,1.0
675,'1',0.0,0.0,189.0,-172.0,1.02182,0,100.0,0.0,0.2,0.0,0.0,1.0,1,100.0,18.75,0.0,1,1.0,0,1.0,0,1.0,0,1.0,0,1.0
442,'99',0.0,0.0,33.333,-33.333,1.00009,0,100.0,0.0,1.0,0.0,0.0,1.0,0,100.0,275.0,2.602,1,1.0,0,1.0,0,1.0,0,1.0,0,1.0
401,'1',0.0,0.0,233.1,-233.1,1.02182,0,100.0,0.0,0.2,0.0,0.0,1.0,0,100.0,323.75,0.0,1,1.0,0,1.0,0,1.0,0,1.0,0,1.0
587,'99',0.0,0.0,600.0,-600.0,1.01,0,100.0,0.0,1.0,0.0,0.0,1.0,1,100.0,1143.688,0.0,1,1.0,0,1.0,0,1.0,0,1.0,0,1.0
121,'1',0.0,0.0,45.0,-45.0,1.02455,0,100.0,0.0,0.18,0.0,0.0,1.0,0,100.0,135.0,35.0,1,1.0,0,1.0,0,1.0,0,1.0,0,1.0
375,'1',0.0,0.0,264.6,-264.6,1.02182,0,100.0,0.0,0.2,0.0,0.0,1.0,0,100.0,367.5,0.0,1,1.0,0,1.0,0,1.0,0,1.0,0,1.0
494,'99',0.0,0.0,600.0,-600.0,1.0164,0,100.0,0.0,1.0,0.0,0.0,1.0,1,100.0,99.274,0.0,1,1.0,0,1.0,0,1.0,0,1.0,0,1.0
572,'1',0.0,0.0,106.441,-106.441,1.02214,560,100.0,0.0,0.1084,0.0,0.0,1.0,0,100.0,147.835,39.82,1,1.0,0,1.0,0,1.0,0,1.0,0,1.0
499,'99',0.0,0.0,600.0,-600.0,1.0239,0,100.0,0.0,1.0,0.0,0.0,1.0,1,100.0,106.736,0.0,1,1.0,0,1.0,0,1.0,0,1.0,0,1.0
703,'1',0.0,0.0,37.667,-37.667,1.02455,0,100.0,0.0,0.18,0.0,0.0,1.0,0,100.0,113.0,32.0,1,1.0,0,1.0,0,1.0,0,1.0,0,1.0
385,'1',0.0,0.0,178.0,-166.0,1.02455,0,100.0,0.0,0.2,0.0,0.0,1.0,0,100.0,27.5,0.0,1,1.0,0,1.0,0,1.0,0,1.0,0,1.0
342,'1',0.0,0.0,245.7,-245.7,1.03,0,100.0,0.0,1.0,0.0,0.0,1.0,0,100.0,341.25,0.0,1,1.0,0,1.0,0,1.0,0,1.0,0,1.0
402,'1',0.0,0.0,236.7,-236.7,1.02455,0,100.0,0.0,0.2,0.0,0.0,1.0,0,100.0,328.75,0.0,1,1.0,0,1.0,0,1.0,0,1.0,0,1.0
352,'1',0.0,0.0,302.333,-302.333,1.0259,277,100.0,0.0038,0.22,0.0,0.0,1.0,0,100.0,254.0,0.0,1,1.0,0,1.0,0,1.0,0,1.0,0,1.0
370,'2',0.0,0.0,228.552,-228.552,1.01125,0,100.0,0.0,0.18,0.0,0.0,1.0,0,100.0,317.434,99.538,1,1.0,0,1.0,0,1.0,0,1.0,0,1.0
702,'1',0.0,0.0,123.75,-123.75,1.02455,0,100.0,0.0,0.18,0.0,0.0,1.0,0,100.0,171.875,32.0,1,1.0,0,1.0,0,1.0,0,1.0,0,1.0
428,'1',0.0,0.0,248.4,-248.4,1.01364,0,100.0,0.0,0.2,0.0,0.0,1.0,1,100.0,345.0,1.0,1,1.0,0,1.0,0,1.0,0,1.0,0,1.0
648,'98',0.0,0.0,566.0,-566.0,1.02143,0,100.0,0.0,0.1,0.0,0.0,1.0,1,100.0,12.5,0.0,1,1.0,0,1.0,0,1.0,0,1.0,0,1.0
337,'99',0.0,0.0,600.0,-600.0,1.01,0,100.0,0.0,1.0,0.0,0.0,1.0,1,100.0,323.75,0.0,1,1.0,0,1.0,0,1.0,0,1.0,0,1.0
719,'1',0.0,0.0,135.007,-135.007,1.02455,0,100.0,0.0,0.18,0.0,0.0,1.0,0,100.0,187.51,79.0,1,1.0,0,1.0,0,1.0,0,1.0,0,1.0
573,'1',0.0,0.0,198.0,-172.0,1.01,0,100.0,0.0,1.0,0.0,0.0,1.0,0,100.0,20.17,1.136,1,1.0,0,1.0,0,1.0,0,1.0,0,1.0
395,'1',0.0,0.0,240.3,-240.3,1.02455,0,100.0,0.0,0.2,0.0,0.0,1.0,0,100.0,333.75,1.0,1,1.0,0,1.0,0,1.0,0,1.0,0,1.0
55,'99',0.0,0.0,600.0,-600.0,1.0108,0,100.0,0.0,1.0,0.0,0.0,1.0,1,100.0,161.5,0.0,1,1.0,0,1.0,0,1.0,0,1.0,0,1.0
133,'99',0.0,0.0,33.333,-33.333,1.0226,0,100.0,0.0,1.0,0.0,0.0,1.0,0,100.0,295.0,2.396,1,1.0,0,1.0,0,1.0,0,1.0,0,1.0
223,'2',0.0,0.0,981.927,-981.927,1.012,0,100.0,0.0,0.235,0.0,0.0,1.0,1,100.0,1363.788,350.876,1,1.0,0,1.0,0,1.0,0,1.0,0,1.0
449,'99',0.0,0.0,600.0,-600.0,1.0044,0,100.0,0.0,1.0,0.0,0.0,1.0,1,100.0,56.762,0.0,1,1.0,0,1.0,0,1.0,0,1.0,0,1.0
31,'99',0.0,0.0,600.0,-600.0,1.0099,0,100.0,0.0,1.0,0.0,0.0,1.0,1,100.0,161.545,0.0,1,1.0,0,1.0,0,1.0,0,1.0,0,1.0
86,'99',0.0,0.0,600.0,-600.0,1.0107,0,100.0,0.0,1.0,0.0,0.0,1.0,1,100.0,99.024,0.0,1,1.0,0,1.0,0,1.0,0,1.0,0,1.0
581,'2',0.0,0.0,225.0,-225.0,1.00975,0,100.0,0.0,0.18,0.0,0.0,1.0,0,100.0,312.5,90.0,1,1.0,0,1.0,0,1.0,0,1.0,0,1.0
370,'1',0.0,0.0,228.552,-228.552,1.01125,0,100.0,0.0,0.18,0.0,0.0,1.0,0,100.0,317.434,99.538,1,1.0,0,1.0,0,1.0,0,1.0,0,1.0
480,'99',0.0,0.0,600.0,-600.0,1.0246,0,100.0,0.0,1.0,0.0,0.0,1.0,1,100.0,78.334,0.0,1,1.0,0,1.0,0,1.0,0,1.0,0,1.0
652,'1',0.0,0.0,243.0,-243.0,1.02182,0,100.0,0.0,0.2,0.0,0.0,1.0,1,100.0,337.5,0.0,1,1.0,0,1.0,0,1.0,0,1.0,0,1.0
634,'99',0.0,0.0,600.0,-600.0,1.01,0,100.0,0.0,1.0,0.0,0.0,1.0,1,100.0,352.174,0.0,1,1.0,0,1.0,0,1.0,0,1.0,0,1.0
281,'99',0.0,0.0,600.0,-600.0,1.0102,0,100.0,0.0,1.0,0.0,0.0,1.0,1,100.0,340.0,0.0,1,1.0,0,1.0,0,1.0,0,1.0,0,1.0
298,'99',0.0,0.0,600.0,-600.0,1.0278,0,100.0,0.0,1.0,0.0,0.0,1.0,1,100.0,35.141,0.0,1,1.0,0,1.0,0,1.0,0,1.0,0,1.0
353,'99',0.0,0.0,600.0,-600.0,1.0063,0,100.0,0.0,1.0,0.0,0.0,1.0,1,100.0,147.834,0.0,1,1.0,0,1.0,0,1.0,0,1.0,0,1.0
428,'3',0.0,0.0,265.5,-265.5,1.01364,0,100.0,0.0,0.2,0.0,0.0,1.0,1,100.0,368.75,1.0,1,1.0,0,1.0,0,1.0,0,1.0,0,1.0
416,'1',0.0,0.0,248.4,-248.4,1.02182,0,100.0,0.0,0.2,0.0,0.0,1.0,1,100.0,345.0,0.0,1,1.0,0,1.0,0,1.0,0,1.0,0,1.0
236,'98',0.0,0.0,371.0,-371.0,1.02045,0,100.0,0.0,0.18,0.0,0.0,1.0,1,100.0,150.0,0.0,1,1.0,0,1.0,0,1.0,0,1.0,0,1.0
350,'99',0.0,0.0,600.0,-600.0,1.0018,0,100.0,0.0,1.0,0.0,0.0,1.0,1,100.0,159.31,0.0,1,1.0,0,1.0,0,1.0,0,1.0,0,1.0
757,'1',0.0,0.0,45.0,-45.0,1.02455,0,100.0,0.0,0.18,0.0,0.0,1.0,0,100.0,135.0,35.0,1,1.0,0,1.0,0,1.0,0,1.0,0,1.0
236,'1',0.0,0.0,123.75,-123.75,1.02045,0,100.0,0.0,0.18,0.0,0.0,1.0,0,100.0,171.875,91.667,1,1.0,0,1.0,0,1.0,0,1.0,0,1.0
483,'99',0.0,0.0,600.0,-600.0,1.0098,0,100.0,0.0,1.0,0.0,0.0,1.0,1,100.0,363.768,0.0,1,1.0,0,1.0,0,1.0,0,1.0,0,1.0
47,'99',0.0,0.0,600.0,-600.0,1.0131,0,100.0,0.0,1.0,0.0,0.0,1.0,1,100.0,81.621,0.0,1,1.0,0,1.0,0,1.0,0,1.0,0,1.0
6,'1',0.0,0.0,33.333,-33.333,0.9534,0,100.0,0.0,1.0,0.0,0.0,1.0,0,100.0,63.0,28.5,1,1.0,0,1.0,0,1.0,0,1.0,0,1.0
93,'99',0.0,0.0,600.0,-600.0,1.0161,0,100.0,0.0,1.0,0.0,0.0,1.0,1,100.0,315.0,0.0,1,1.0,0,1.0,0,1.0,0,1.0,0,1.0
52,'99',0.0,0.0,600.0,-600.0,1.0051,0,100.0,0.0,1.0,0.0,0.0,1.0,1,100.0,132.664,0.0,1,1.0,0,1.0,0,1.0,0,1.0,0,1.0
482,'99',0.0,0.0,600.0,-600.0,1.0301,0,100.0,0.0,1.0,0.0,0.0,1.0,1,100.0,119.867,0.0,1,1.0,0,1.0,0,1.0,0,1.0,0,1.0
697,'99',0.0,0.0,33.333,-33.333,1.01937,0,100.0,0.0,1.0,0.0,0.0,1.0,0,100.0,257.0,4.417,1,1.0,0,1.0,0,1.0,0,1.0,0,1.0
151,'1',0.0,0.0,108.0,-108.0,0.98866,0,100.0,0.0,0.18,0.0,0.0,1.0,0,100.0,150.0,70.0,1,1.0,0,1.0,0,1.0,0,1.0,0,1.0
23,'98',0.0,0.0,300.0,-300.0,1.01,0,100.0,0.0,1.0,0.0,0.0,1.0,1,100.0,60.873,0.0,1,1.0,0,1.0,0,1.0,0,1.0,0,1.0
246,'1',0.0,0.0,393.75,-393.75,1.01364,0,100.0,0.0,0.21,0.0,0.0,1.0,1,100.0,546.875,240.0,1,1.0,0,1.0,0,1.0,0,1.0,0,1.0
100,'99',0.0,0.0,33.333,-33.333,1.02455,0,100.0,0.0,1.0,0.0,0.0,1.0,0,100.0,28.104,13.104,1,1.0,0,1.0,0,1.0,0,1.0,0,1.0
470,'2',0.0,0.0,30.0,-175.0,1.01637,0,100.0,0.0,0.2,0.0,0.0,1.0,0,100.0,31.423,9.0,1,1.0,0,1.0,0,1.0,0,1.0,0,1.0
690,'1',0.0,0.0,261.9,-261.9,1.02182,0,100.0,0.0,0.2,0.0,0.0,1.0,1,100.0,363.75,0.0,1,1.0,0,1.0,0,1.0,0,1.0,0,1.0
652,'98',0.0,0.0,566.0,-566.0,1.02182,0,100.0,0.0,0.1,0.0,0.0,1.0,1,100.0,12.5,0.0,1,1.0,0,1.0,0,1.0,0,1.0,0,1.0
579,'2',0.0,0.0,68.333,-68.333,1.02455,0,100.0,0.0,0.18,0.0,0.0,1.0,0,100.0,205.0,135.0,1,1.0,0,1.0,0,1.0,0,1.0,0,1.0
437,'99',0.0,0.0,600.0,-600.0,1.0287,0,100.0,0.0,1.0,0.0,0.0,1.0,1,100.0,213.265,0.0,1,1.0,0,1.0,0,1.0,0,1.0,0,1.0
224,'2',0.0,0.0,382.5,-382.5,1.012,0,100.0,0.0,0.21,0.0,0.0,1.0,1,100.0,531.25,240.0,1,1.0,0,1.0,0,1.0,0,1.0,0,1.0
599,'1',0.0,0.0,0.333,-0.333,1.02455,0,100.0,0.0,0.2,0.0,0.0,1.0,0,100.0,299.0,0.0,1,1.0,0,1.0,0,1.0,0,1.0,0,1.0
770,'2',0.0,0.0,36.667,-36.667,1.02455,0,100.0,0.0,0.18,0.0,0.0,1.0,0,100.0,110.0,79.0,1,1.0,0,1.0,0,1.0,0,1.0,0,1.0
156,'99',0.0,0.0,33.333,-33.333,1.02608,0,100.0,0.0,1.0,0.0,0.0,1.0,0,100.0,62.466,47.466,1,1.0,0,1.0,0,1.0,0,1.0,0,1.0
490,'99',0.0,0.0,600.0,-600.0,1.0344,0,100.0,0.0,1.0,0.0,0.0,1.0,1,100.0,99.234,0.0,1,1.0,0,1.0,0,1.0,0,1.0,0,1.0
470,'1',0.0,0.0,11.667,-11.667,1.01637,0,100.0,0.0,0.2,0.0,0.0,1.0,0,100.0,35.0,9.0,1,1.0,0,1.0,0,1.0,0,1.0,0,1.0
579,'3',0.0,0.0,208.8,-208.8,1.02455,0,100.0,0.0,0.18,0.0,0.0,1.0,0,100.0,290.0,100.0,1,1.0,0,1.0,0,1.0,0,1.0,0,1.0
580,'1',0.0,0.0,225.285,-225.285,1.00975,0,100.0,0.0,0.18,0.0,0.0,1.0,0,100.0,312.896,90.0,1,1.0,0,1.0,0,1.0,0,1.0,0,1.0
71,'99',0.0,0.0,600.0,-600.0,1.0159,0,100.0,0.0,1.0,0.0,0.0,1.0,1,100.0,80.636,0.0,1,1.0,0,1.0,0,1.0,0,1.0,0,1.0
35,'2',0.0,0.0,23.05,-23.05,1.0101,0,100.0,0.0,0.135,0.002,0.0585,1.0,0,100.0,300.0,0.0,1,1.0,0,1.0,0,1.0,0,1.0,0,1.0
309,'1',0.0,0.0,444.271,-444.271,1.01,308,100.0,0.0,0.207,0.0,0.0,1.0,0,100.0,617.042,198.808,1,1.0,0,1.0,0,1.0,0,1.0,0,1.0
90,'99',0.0,0.0,600.0,-600.0,1.0078,0,100.0,0.0,1.0,0.0,0.0,1.0,1,100.0,70.774,0.0,1,1.0,0,1.0,0,1.0,0,1.0,0,1.0
131,'1',0.0,0.0,8.333,-8.333,1.02182,0,100.0,0.0,0.2,0.0,0.0,1.0,0,100.0,25.0,10.0,1,1.0,0,1.0,0,1.0,0,1.0,0,1.0
250,'1',0.0,0.0,190.0,-179.0,1.02182,0,100.0,0.0,0.2,0.0,0.0,1.0,0,100.0,37.5,0.0,1,1.0,0,1.0,0,1.0,0,1.0,0,1.0
740,'99',0.0,0.0,600.0,-600.0,1.0214,0,100.0,0.0,1.0,0.0,0.0,1.0,1,100.0,336.25,0.0,1,1.0,0,1.0,0,1.0,0,1.0,0,1.0
335,'1',0.0,0.0,76.667,-76.667,1.0259,265,100.0,0.0022,0.1728,0.0,0.0,1.025,0,100.0,173.25,117.8,1,1.0,0,1.0,0,1.0,0,1.0,0,1.0
326,'1',0.0,0.0,76.667,-76.667,1.0259,265,100.0,0.0022,0.1728,0.0,0.0,1.025,0,100.0,173.25,117.8,1,1.0,0,1.0,0,1.0,0,1.0,0,1.0
571,'1',0.0,0.0,106.441,-106.441,1.02214,0,100.0,0.0,0.2248,0.0,0.0,1.0,1,100.0,147.835,41.357,1,1.0,0,1.0,0,1.0,0,1.0,0,1.0
633,'99',0.0,0.0,600.0,-600.0,1.01,0,100.0,0.0,1.0,0.0,0.0,1.0,1,100.0,172.444,0.0,1,1.0,0,1.0,0,1.0,0,1.0,0,1.0
688,'1',0.0,0.0,241.2,-241.2,1.02182,0,100.0,0.0,0.2,0.0,0.0,1.0,1,100.0,335.0,0.0,1,1.0,0,1.0,0,1.0,0,1.0,0,1.0
549,'99',0.0,0.0,600.0,-600.0,1.01,0,100.0,0.0,1.0,0.0,0.0,1.0,1,100.0,69.559,0.0,1,1.0,0,1.0,0,1.0,0,1.0,0,1.0
566,'1',0.0,0.0,117.275,-117.275,1.02214,560,100.0,0.0,0.2232,0.0,0.0,1.0,0,100.0,162.883,26.42,1,1.0,0,1.0,0,1.0,0,1.0,0,1.0
45,'1',0.0,0.0,67.75,-67.75,1.0087,36,100.0,0.0,0.226,0.0094,0.1876,1.0,0,100.0,173.25,50.54,1,1.0,0,1.0,0,1.0,0,1.0,0,1.0
487,'99',0.0,0.0,600.0,-600.0,1.0367,0,100.0,0.0,1.0,0.0,0.0,1.0,1,100.0,160.479,0.0,1,1.0,0,1.0,0,1.0,0,1.0,0,1.0
99,'1',0.0,0.0,129.375,-129.375,1.02455,0,100.0,0.0,0.18,0.0,0.0,1.0,0,100.0,179.688,70.0,1,1.0,0,1.0,0,1.0,0,1.0,0,1.0
559,'1',0.0,0.0,31.015,-31.015,1.0192,0,100.0,0.0,0.157,0.0,0.0,1.0,0,100.0,80.5,31.0,1,1.0,0,1.0,0,1.0,0,1.0,0,1.0
116,'1',0.0,0.0,123.75,-123.75,1.02455,0,100.0,0.0,0.18,0.0,0.0,1.0,0,100.0,171.875,32.0,1,1.0,0,1.0,0,1.0,0,1.0,0,1.0
267,'99',0.0,0.0,600.0,-600.0,1.01,0,100.0,0.0,1.0,0.0,0.0,1.0,1,100.0,367.5,0.0,1,1.0,0,1.0,0,1.0,0,1.0,0,1.0
471,'2',0.0,0.0,10.0,-10.0,1.01637,0,100.0,0.0,0.2,0.0,0.0,1.0,0,100.0,30.0,9.0,1,1.0,0,1.0,0,1.0,0,1.0,0,1.0
272,'99',0.0,0.0,600.0,-600.0,1.0194,0,100.0,0.0,1.0,0.0,0.0,1.0,1,100.0,93.094,0.0,1,1.0,0,1.0,0,1.0,0,1.0,0,1.0
567,'1',0.0,0.0,117.275,-117.275,1.02214,560,100.0,0.0,0.1325,0.0,0.0,1.0,0,100.0,162.883,13.12,1,1.0,0,1.0,0,1.0,0,1.0,0,1.0
770,'1',0.0,0.0,229.979,-229.979,1.02455,0,100.0,0.0,0.18,0.0,0.0,1.0,1,100.0,319.415,99.14,1,1.0,0,1.0,0,1.0,0,1.0,0,1.0
307,'99',0.0,0.0,600.0,-600.0,1.0064,0,100.0,0.0,1.0,0.0,0.0,1.0,1,100.0,46.103,0.0,1,1.0,0,1.0,0,1.0,0,1.0,0,1.0
65,'1',0.0,0.0,226.8,-226.8,1.0166,0,100.0,0.0,0.32,0.0,0.0,1.0,1,100.0,315.0,7.393,1,1.0,0,1.0,0,1.0,0,1.0,0,1.0
152,'1',0.0,0.0,134.994,-134.994,1.02455,0,100.0,0.0,0.18,0.0,0.0,1.0,1,100.0,187.491,79.0,1,1.0,0,1.0,0,1.0,0,1.0,0,1.0
131,'3',0.0,0.0,195.0,-172.0,1.02182,0,100.0,0.0,0.2,0.0,0.0,1.0,0,100.0,39.062,10.0,1,1.0,0,1.0,0,1.0,0,1.0,0,1.0
373,'1',0.0,0.0,49.5,-185.0,1.00771,0,100.0,0.0,0.2,0.0,0.0,1.0,1,100.0,68.75,26.0,1,1.0,0,1.0,0,1.0,0,1.0,0,1.0
570,'1',0.0,0.0,44.179,-44.179,1.02214,560,100.0,0.0,0.1762,0.0,0.0,1.0,0,100.0,95.0,40.98,1,1.0,0,1.0,0,1.0,0,1.0,0,1.0
645,'3',0.0,0.0,228.333,-228.333,1.01125,0,100.0,0.0,0.18,0.0,0.0,1.0,1,100.0,317.129,98.483,1,1.0,0,1.0,0,1.0,0,1.0,0,1.0
134,'1',0.0,0.0,16.667,-16.667,1.02455,0,100.0,0.0,0.2,0.0,0.0,1.0,0,100.0,50.0,10.0,1,1.0,0,1.0,0,1.0,0,1.0,0,1.0
436,'99',0.0,0.0,600.0,-600.0,1.033,0,100.0,0.0,1.0,0.0,0.0,1.0,1,100.0,144.664,0.0,1,1.0,0,1.0,0,1.0,0,1.0,0,1.0
43,'99',0.0,0.0,600.0,-600.0,1.0131,0,100.0,0.0,1.0,0.0,0.0,1.0,1,100.0,357.5,0.0,1,1.0,0,1.0,0,1.0,0,1.0,0,1.0
...
0 / end generator section
374,400,'1',0.00331,0.01074,0.00109,137.0,137.0,137.0,0.0,0.0,0.0,0.0,1,1,0.0,1,1.0,0,1.0,0,1.0,0,1.0
244,245,'1',8e-05,0.00083,0.0,438.0,438.0,438.0,0.0,0.0,0.0,0.0,1,2,0.0,1,1.0,0,1.0,0,1.0,0,1.0
378,398,'1',0.00124,0.00413,0.00041,137.0,137.0,137.0,0.0,0.0,0.0,0.0,1,2,0.0,1,1.0,0,1.0,0,1.0,0,1.0
279,311,'1',0.0129,0.0326,0.0,260.0,312.0,312.0,0.0,0.0,0.0,0.0,1,2,0.0,1,1.0,0,1.0,0,1.0,0,1.0
700,701,'1',8e-05,0.00083,0.0,438.0,438.0,438.0,0.0,0.0,0.0,0.0,1,2,0.0,1,1.0,0,1.0,0,1.0,0,1.0
402,407,'1',0.00862,0.02752,0.00296,101.0,101.0,101.0,0.0,0.0,0.0,0.0,1,1,0.0,1,1.0,0,1.0,0,1.0,0,1.0
431,434,'1',0.00694,0.02281,0.0023,112.35,129.63,129.63,0.0,0.0,0.0,0.0,1,2,0.0,1,1.0,0,1.0,0,1.0,0,1.0
765,797,'1',0.00463,0.01446,0.00163,312.48,374.98,374.98,0.0,0.0,0.0,0.0,1,1,0.0,1,1.0,0,1.0,0,1.0,0,1.0
11,92,'1',0.00236,0.00669,0.00079,62.0,62.0,62.0,0.0,0.0,0.0,0.0,1,1,0.0,1,1.0,0,1.0,0,1.0,0,1.0
216,364,'TL',0.0001,0.01,0.0,502.52,579.83,579.83,0.0,0.0,0.0,0.0,1,1,0.0,39,1.0,0,1.0,0,1.0,0,1.0
643,645,'1',0.0015,0.01768,0.46944,831.0,831.0,831.0,0.0,0.0,0.0,0.0,1,2,0.0,1,1.0,0,1.0,0,1.0,0,1.0
408,409,'1',8e-05,0.00083,0.0,438.0,438.0,438.0,0.0,0.0,0.0,0.0,1,2,0.0,1,1.0,0,1.0,0,1.0,0,1.0
649,655,'1',0.03025,0.09752,0.01002,202.4,233.54,233.54,0.0,0.0,0.0,0.0,1,1,0.0,1,1.0,0,1.0,0,1.0,0,1.0
372,419,'1',0.02139,0.06954,0.00729,219.24,252.97,252.97,0.0,0.0,0.0,0.0,1,1,0.0,1,1.0,0,1.0,0,1.0,0,1.0
769,789,'1',0.00149,0.00479,0.00048,75.0,75.0,75.0,0.0,0.0,0.0,0.0,1,1,0.0,1,1.0,0,1.0,0,1.0,0,1.0
159,160,'1',8e-05,0.00083,0.0,438.0,438.0,438.0,0.0,0.0,0.0,0.0,1,2,0.0,1,1.0,0,1.0,0,1.0,0,1.0
614,617,'1',0.02983,0.05793,0.00547,69.0,69.0,69.0,0.0,0.0,0.0,0.0,1,2,0.0,1,1.0,0,1.0,0,1.0,0,1.0
614,615,'1',0.03967,0.07157,0.00641,69.0,69.0,69.0,0.0,0.0,0.0,0.0,1,1,0.0,1,1.0,0,1.0,0,1.0,0,1.0
384,414,'1',0.00408,0.01332,0.00136,123.0,123.0,123.0,0.0,0.0,0.0,0.0,1,2,0.0,1,1.0,0,1.0,0,1.0,0,1.0
285,299,'1',0.186,0.2481,0.0,260.0,312.0,312.0,0.0,0.0,0.0,0.0,1,1,0.0,1,1.0,0,1.0,0,1.0,0,1.0
316,350,'1',0.0031,0.0214,0.0092,234.0,234.0,234.0,0.0,0.0,0.0,0.0,1,1,0.0,1,1.0,0,1.0,0,1.0,0,1.0
382,417,'1',0.01083,0.03471,0.00358,137.0,137.0,137.0,0.0,0.0,0.0,0.0,1,1,0.0,1,1.0,0,1.0,0,1.0,0,1.0
112,114,'1',0.0005,0.00149,0.0096,98.0,98.0,98.0,0.0,0.0,0.0,0.0,1,1,0.0,1,1.0,0,1.0,0,1.0,0,1.0
548,556,'1',0.00244,0.01291,0.00325,137.5,165.0,165.0,0.0,0.0,0.0,0.0,1,2,3.0,1,1.0,0,1.0,0,1.0,0,1.0
378,397,'1',0.01281,0.02149,0.00212,78.0,78.0,78.0,0.0,0.0,0.0,0.0,1,2,0.0,1,1.0,0,1.0,0,1.0,0,1.0
744,745,'1',8e-05,0.00083,0.0,438.0,438.0,438.0,0.0,0.0,0.0,0.0,1,2,0.0,1,1.0,0,1.0,0,1.0,0,1.0
215,221,'1',0.00924,0.05052,0.07698,367.86,478.22,478.22,0.0,0.0,0.0,0.0,1,2,0.0,1,1.0,0,1.0,0,1.0,0,1.0
436,468,'1',0.00356,0.01154,0.00122,180.17,207.89,207.89,0.0,0.0,0.0,0.0,1,2,0.0,1,1.0,0,1.0,0,1.0,0,1.0
290,333,'1',0.3786,0.5048,0.0,260.0,312.0,312.0,0.0,0.0,0.0,0.0,1,2,0.0,1,1.0,0,1.0,0,1.0,0,1.0
286,328,'1',0.0136,0.0818,0.0,260.0,312.0,312.0,0.0,0.0,0.0,0.0,1,2,0.0,1,1.0,0,1.0,0,1.0,0,1.0
181,182,'1',8e-05,0.00083,0.0,438.0,438.0,438.0,0.0,0.0,0.0,0.0,1,2,0.0,1,1.0,0,1.0,0,1.0,0,1.0
270,298,'1',0.1225,0.287,0.0,260.0,312.0,312.0,0.0,0.0,0.0,0.0,1,2,0.0,1,1.0,0,1.0,0,1.0,0,1.0
122,144,'1',0.00314,0.01355,0.00135,80.0,80.0,80.0,0.0,0.0,0.0,0.0,1,2,0.0,1,1.0,0,1.0,0,1.0,0,1.0
413,418,'1',0.01686,0.05427,0.00558,69.0,69.0,69.0,0.0,0.0,0.0,0.0,1,1,0.0,1,1.0,0,1.0,0,1.0,0,1.0
41,87,'1',0.0001,0.001,0.0,260.0,312.0,312.0,0.0,0.0,0.0,0.0,1,1,0.0,1,1.0,0,1.0,0,1.0,0,1.0
782,789,'1',0.0024,0.00694,0.0009,75.0,75.0,75.0,0.0,0.0,0.0,0.0,1,2,0.0,1,1.0,0,1.0,0,1.0,0,1.0
368,369,'1',1e-05,6e-05,0.0,1593.0,1593.0,1593.0,0.0,0.0,0.0,0.0,1,2,0.0,1,1.0,0,1.0,0,1.0,0,1.0
155,201,'1',0.00083,0.00248,0.00027,62.0,62.0,62.0,0.0,0.0,0.0,0.0,1,1,0.0,1,1.0,0,1.0,0,1.0,0,1.0
521,548,'1',0.00892,0.04999,0.07962,114.85,137.82,137.82,0.0,0.0,0.0,0.0,1,1,25.5,1,1.0,0,1.0,0,1.0,0,1.0
23,254,'TL',0.0001,0.01,0.0,187.82,225.39,225.39,0.0,0.0,0.0,0.0,1,1,0.0,48,1.0,0,1.0,0,1.0,0,1.0
714,715,'1',8e-05,0.00083,0.0,438.0,438.0,438.0,0.0,0.0,0.0,0.0,1,2,0.0,1,1.0,0,1.0,0,1.0,0,1.0
498,502,'1',0.00539,0.02321,0.03949,135.93,163.12,163.12,0.0,0.0,0.0,0.0,1,1,13.2,1,1.0,0,1.0,0,1.0,0,1.0
118,119,'1',0.00124,0.00421,0.00059,70.0,70.0,70.0,0.0,0.0,0.0,0.0,1,2,0.0,1,1.0,0,1.0,0,1.0,0,1.0
151,189,'1',0.00579,0.01446,0.00162,113.45,130.9,130.9,0.0,0.0,0.0,0.0,1,2,0.0,1,1.0,0,1.0,0,1.0,0,1.0
171,172,'1',8e-05,0.00083,0.0,438.0,438.0,438.0,0.0,0.0,0.0,0.0,1,2,0.0,1,1.0,0,1.0,0,1.0,0,1.0
278,336,'1',0.06765,0.0975,0.0,260.0,312.0,312.0,0.0,0.0,0.0,0.0,1,1,0.0,1,1.0,0,1.0,0,1.0,0,1.0
307,329,'1',0.07964,0.20154,0.0,260.0,312.0,312.0,0.0,0.0,0.0,0.0,1,2,0.0,1,1.0,0,1.0,0,1.0,0,1.0
101,696,'TL',0.0001,0.01,0.0,125.8,150.96,150.96,0.0,0.0,0.0,0.0,1,1,0.0,9,1.0,0,1.0,0,1.0,0,1.0
427,432,'1',0.01959,0.06355,0.00659,104.82,120.95,120.95,0.0,0.0,0.0,0.0,1,2,0.0,1,1.0,0,1.0,0,1.0,0,1.0
526,546,'1',0.00355,0.0341,0.08315,529.41,635.29,635.29,0.0,0.0,0.0,0.0,1,1,23.5,1,1.0,0,1.0,0,1.0,0,1.0
117,187,'1',0.00504,0.01562,0.00173,75.0,75.0,75.0,0.0,0.0,0.0,0.0,1,2,0.0,1,1.0,0,1.0,0,1.0,0,1.0
144,192,'1',0.0014,0.00471,0.00048,75.0,75.0,75.0,0.0,0.0,0.0,0.0,1,2,0.0,1,1.0,0,1.0,0,1.0,0,1.0
454,455,'1',8e-05,0.00083,0.0,438.0,438.0,438.0,0.0,0.0,0.0,0.0,1,2,0.0,1,1.0,0,1.0,0,1.0,0,1.0
491,493,'1',0.00022,0.00106,0.0,260.0,312.0,312.0,0.0,0.0,0.0,0.0,1,1,0.0,1,1.0,0,1.0,0,1.0,0,1.0
490,509,'1',0.00656,0.03349,0.01417,154.0,184.8,184.8,0.0,0.0,0.0,0.0,1,1,9.8,1,1.0,0,1.0,0,1.0,0,1.0
774,797,'1',0.00091,0.00256,0.00033,313.63,376.35,376.35,0.0,0.0,0.0,0.0,1,2,0.0,1,1.0,0,1.0,0,1.0,0,1.0
391,392,'1',0.00413,0.01372,0.00138,183.3,211.5,211.5,0.0,0.0,0.0,0.0,1,2,0.0,1,1.0,0,1.0,0,1.0,0,1.0
141,151,'1',0.03413,0.08545,0.00909,144.77,167.04,167.04,0.0,0.0,0.0,0.0,1,1,0.0,1,1.0,0,1.0,0,1.0,0,1.0
501,530,'1',0.00105,0.00425,0.00181,154.81,185.77,185.77,0.0,0.0,0.0,0.0,1,1,1.2,1,1.0,0,1.0,0,1.0,0,1.0
99,102,'1',0.00537,0.04039,0.06005,319.0,319.0,319.0,0.0,0.0,0.0,0.0,1,1,0.0,1,1.0,0,1.0,0,1.0,0,1.0
277,322,'1',0.0001,0.001,0.00513,870.0,870.0,870.0,0.0,0.0,0.0,0.0,1,2,0.0,1,1.0,0,1.0,0,1.0,0,1.0
659,660,'1',0.00142,0.00465,0.00047,172.48,199.02,199.02,0.0,0.0,0.0,0.0,1,1,0.0,1,1.0,0,1.0,0,1.0,0,1.0
532,546,'1',0.00265,0.02334,0.06009,492.28,590.74,590.74,0.0,0.0,0.0,0.0,1,1,16.6,1,1.0,0,1.0,0,1.0,0,1.0
243,252,'1',0.0044,0.03039,0.00342,208.0,208.0,208.0,0.0,0.0,0.0,0.0,1,2,0.0,1,1.0,0,1.0,0,1.0,0,1.0
548,557,'1',0.07021,0.34729,0.05054,100.36,120.43,120.43,0.0,0.0,0.0,0.0,1,1,53.2,1,1.0,0,1.0,0,1.0,0,1.0
260,261,'1',0.01628,0.05397,0.00529,129.61,149.56,149.56,0.0,0.0,0.0,0.0,1,1,0.0,1,1.0,0,1.0,0,1.0,0,1.0
795,796,'1',8e-05,0.00083,0.0,438.0,438.0,438.0,0.0,0.0,0.0,0.0,1,2,0.0,1,1.0,0,1.0,0,1.0,0,1.0
599,607,'1',0.00628,0.01058,0.00108,78.0,78.0,78.0,0.0,0.0,0.0,0.0,1,2,0.0,1,1.0,0,1.0,0,1.0,0,1.0
108,684,'TL',0.0001,0.01,0.0,667.77,770.51,770.51,0.0,0.0,0.0,0.0,1,1,0.0,24,1.0,0,1.0,0,1.0,0,1.0
576,578,'1',0.01062,0.0789,0.12085,631.86,821.42,821.42,0.0,0.0,0.0,0.0,1,2,0.0,1,1.0,0,1.0,0,1.0,0,1.0
375,405,'1',0.04628,0.07107,0.0076,201.48,232.47,232.47,0.0,0.0,0.0,0.0,1,1,0.0,1,1.0,0,1.0,0,1.0,0,1.0
623,680,'TL',0.0001,0.01,0.0,119.95,143.93,143.93,0.0,0.0,0.0,0.0,1,2,0.0,36,1.0,0,1.0,0,1.0,0,1.0
191,192,'1',0.0005,0.0014,0.00017,75.0,75.0,75.0,0.0,0.0,0.0,0.0,1,1,0.0,1,1.0,0,1.0,0,1.0,0,1.0
312,331,'1',0.0285,0.0462,0.0,260.0,312.0,312.0,0.0,0.0,0.0,0.0,1,2,0.0,1,1.0,0,1.0,0,1.0,0,1.0
720,727,'1',0.0024,0.00727,0.00087,110.28,143.37,143.37,0.0,0.0,0.0,0.0,1,1,0.0,1,1.0,0,1.0,0,1.0,0,1.0
576,577,'1',2e-05,0.00021,0.0,876.0,876.0,876.0,0.0,0.0,0.0,0.0,1,2,0.0,1,1.0,0,1.0,0,1.0,0,1.0
167,168,'1',8e-05,0.00083,0.0,438.0,438.0,438.0,0.0,0.0,0.0,0.0,1,2,0.0,1,1.0,0,1.0,0,1.0,0,1.0
239,255,'1',0.01372,0.04446,0.00461,90.0,90.0,90.0,0.0,0.0,0.0,0.0,1,2,0.0,1,1.0,0,1.0,0,1.0,0,1.0
549,552,'1',0.00468,0.02382,0.0034,160.44,192.53,192.53,0.0,0.0,0.0,0.0,1,2,4.2,1,1.0,0,1.0,0,1.0,0,1.0
289,336,'1',0.06732,0.17033,0.0,260.0,312.0,312.0,0.0,0.0,0.0,0.0,1,1,0.0,1,1.0,0,1.0,0,1.0,0,1.0
97,98,'1',2e-05,0.00021,0.0,876.0,876.0,876.0,0.0,0.0,0.0,0.0,1,2,0.0,1,1.0,0,1.0,0,1.0,0,1.0
69,86,'1',0.00519,0.04108,0.09283,510.0,510.0,510.0,0.0,0.0,0.0,0.0,1,1,0.0,1,1.0,0,1.0,0,1.0,0,1.0
520,530,'1',0.00308,0.013,0.00362,145.79,174.95,174.95,0.0,0.0,0.0,0.0,1,2,2.9,1,1.0,0,1.0,0,1.0,0,1.0
793,794,'1',8e-05,0.00083,0.0,438.0,438.0,438.0,0.0,0.0,0.0,0.0,1,2,0.0,1,1.0,0,1.0,0,1.0,0,1.0
653,675,'1',0.00124,0.00413,0.00041,214.19,257.03,257.03,0.0,0.0,0.0,0.0,1,2,0.0,1,1.0,0,1.0,0,1.0,0,1.0
105,180,'1',0.00653,0.02058,0.00222,628.23,724.88,724.88,0.0,0.0,0.0,0.0,1,2,0.0,1,1.0,0,1.0,0,1.0,0,1.0
228,229,'1',2e-05,0.00021,0.0,876.0,876.0,876.0,0.0,0.0,0.0,0.0,1,2,0.0,1,1.0,0,1.0,0,1.0,0,1.0
622,628,'1',0.00026,0.00066,7e-05,69.0,69.0,69.0,0.0,0.0,0.0,0.0,1,1,0.0,1,1.0,0,1.0,0,1.0,0,1.0
702,703,'1',8e-05,0.00083,0.0,438.0,438.0,438.0,0.0,0.0,0.0,0.0,1,2,0.0,1,1.0,0,1.0,0,1.0,0,1.0
141,164,'1',0.02496,0.03802,0.00491,39.0,39.0,39.0,0.0,0.0,0.0,0.0,1,1,0.0,1,1.0,0,1.0,0,1.0,0,1.0
32,72,'1',0.02022,0.04363,0.00517,74.0,74.0,74.0,0.0,0.0,0.0,0.0,1,2,0.0,1,1.0,0,1.0,0,1.0,0,1.0
711,712,'1',8e-05,0.00083,0.0,438.0,438.0,438.0,0.0,0.0,0.0,0.0,1,2,0.0,1,1.0,0,1.0,0,1.0,0,1.0
446,454,'1',0.00049,0.00313,0.02806,137.0,137.0,137.0,0.0,0.0,0.0,0.0,1,1,0.0,1,1.0,0,1.0,0,1.0,0,1.0
677,688,'1',0.04174,0.07322,0.00692,264.2,304.84,304.84,0.0,0.0,0.0,0.0,1,1,0.0,1,1.0,0,1.0,0,1.0,0,1.0
36,483,'TL',0.0001,0.01,0.0,257.59,297.22,297.22,0.0,0.0,0.0,0.0,1,1,0.0,46,1.0,0,1.0,0,1.0,0,1.0
17,93,'1',0.0001,0.001,0.0,260.0,312.0,312.0,0.0,0.0,0.0,0.0,1,2,0.0,1,1.0,0,1.0,0,1.0,0,1.0
408,410,'1',0.00496,0.00826,0.00085,97.72,112.75,112.75,0.0,0.0,0.0,0.0,1,1,0.0,1,1.0,0,1.0,0,1.0,0,1.0
214,219,'1',0.00457,0.03351,0.05245,317.0,317.0,317.0,0.0,0.0,0.0,0.0,1,2,0.0,1,1.0,0,1.0,0,1.0,0,1.0
682,683,'1',8e-05,0.00083,0.0,438.0,438.0,438.0,0.0,0.0,0.0,0.0,1,2,0.0,1,1.0,0,1.0,0,1.0,0,1.0
237,264,'1',0.02058,0.06694,0.00691,90.0,90.0,90.0,0.0,0.0,0.0,0.0,1,2,0.0,1,1.0,0,1.0,0,1.0,0,1.0
621,623,'1',0.03347,0.06529,0.00593,123.0,123.0,123.0,0.0,0.0,0.0,0.0,1,1,0.0,1,1.0,0,1.0,0,1.0,0,1.0
281,287,'1',0.09062,0.14311,0.0,260.0,312.0,312.0,0.0,0.0,0.0,0.0,1,1,0.0,1,1.0,0,1.0,0,1.0,0,1.0
723,746,'1',0.00091,0.00256,0.00033,75.0,75.0,75.0,0.0,0.0,0.0,0.0,1,2,0.0,1,1.0,0,1.0,0,1.0,0,1.0
751,752,'1',8e-05,0.00083,0.0,438.0,438.0,438.0,0.0,0.0,0.0,0.0,1,2,0.0,1,1.0,0,1.0,0,1.0,0,1.0
637,640,'1',0.02738,0.14254,0.20047,222.0,222.0,222.0,0.0,0.0,0.0,0.0,1,1,0.0,1,1.0,0,1.0,0,1.0,0,1.0
304,318,'1',0.0116,0.066,0.0152,236.0,266.0,266.0,0.0,0.0,0.0,0.0,1,2,0.0,1,1.0,0,1.0,0,1.0,0,1.0
41,46,'1',0.00572,0.03592,0.12701,617.0,617.0,617.0,0.0,0.0,0.0,0.0,1,2,0.0,1,1.0,0,1.0,0,1.0,0,1.0
728,729,'1',8e-05,0.00083,0.0,438.0,438.0,438.0,0.0,0.0,0.0,0.0,1,2,0.0,1,1.0,0,1.0,0,1.0,0,1.0
632,647,'1',0.00568,0.04215,0.0716,317.0,317.0,317.0,0.0,0.0,0.0,0.0,1,2,0.0,1,1.0,0,1.0,0,1.0,0,1.0
653,673,'1',0.00793,0.02231,0.00215,123.0,123.0,123.0,0.0,0.0,0.0,0.0,1,1,0.0,1,1.0,0,1.0,0,1.0,0,1.0
241,442,'TL',0.0001,0.01,0.0,83.7,98.6,98.6,0.0,0.0,0.0,0.0,1,1,0.0,37,1.0,0,1.0,0,1.0,0,1.0
618,620,'1',0.00132,0.00421,0.00044,119.0,119.0,119.0,0.0,0.0,0.0,0.0,1,1,0.0,1,1.0,0,1.0,0,1.0,0,1.0
451,473,'1',0.00047,0.0015,0.00016,137.0,137.0,137.0,0.0,0.0,0.0,0.0,1,2,0.0,1,1.0,0,1.0,0,1.0,0,1.0
624,626,'1',0.02394,0.04718,0.00469,58.83,76.48,76.48,0.0,0.0,0.0,0.0,1,2,0.0,1,1.0,0,1.0,0,1.0,0,1.0
706,725,'1',0.00223,0.00826,0.00099,70.0,70.0,70.0,0.0,0.0,0.0,0.0,1,2,0.0,1,1.0,0,1.0,0,1.0,0,1.0
542,544,'1',0.00103,0.00411,0.00208,182.59,219.11,219.11,0.0,0.0,0.0,0.0,1,1,1.3,1,1.0,0,1.0,0,1.0,0,1.0
617,627,'1',0.01843,0.0619,0.0062,123.0,123.0,123.0,0.0,0.0,0.0,0.0,1,1,0.0,1,1.0,0,1.0,0,1.0,0,1.0
535,538,'1',0.00028,0.00108,0.0,260.0,312.0,312.0,0.0,0.0,0.0,0.0,1,1,0.0,1,1.0,0,1.0,0,1.0,0,1.0
696,698,'1',0.01093,0.05919,0.08439,180.0,180.0,180.0,0.0,0.0,0.0,0.0,1,1,0.0,1,1.0,0,1.0,0,1.0,0,1.0
256,258,'1',0.00488,0.01587,0.00164,90.0,90.0,90.0,0.0,0.0,0.0,0.0,1,2,0.0,1,1.0,0,1.0,0,1.0,0,1.0
218,222,'1',0.00399,0.02901,0.04808,380.0,380.0,380.0,0.0,0.0,0.0,0.0,1,2,0.0,1,1.0,0,1.0,0,1.0,0,1.0
116,153,'1',0.00455,0.01405,0.0016,75.0,75.0,75.0,0.0,0.0,0.0,0.0,1,2,0.0,1,1.0,0,1.0,0,1.0,0,1.0
736,737,'1',0.00074,0.00231,0.00026,75.0,75.0,75.0,0.0,0.0,0.0,0.0,1,1,0.0,1,1.0,0,1.0,0,1.0,0,1.0
119,152,'1',0.00488,0.01678,0.00193,100.5,115.96,115.96,0.0,0.0,0.0,0.0,1,2,0.0,1,1.0,0,1.0,0,1.0,0,1.0
156,656,'TL',0.0001,0.01,0.0,106.7,123.11,123.11,0.0,0.0,0.0,0.0,1,2,0.0,25,1.0,0,1.0,0,1.0,0,1.0
308,342,'1',0.01145,0.06115,0.0324,540.0,696.0,696.0,0.0,0.0,0.0,0.0,1,1,0.0,1,1.0,0,1.0,0,1.0,0,1.0
318,343,'1',0.00331,0.01875,0.00493,220.0,220.0,220.0,0.0,0.0,0.0,0.0,1,1,0.0,1,1.0,0,1.0,0,1.0,0,1.0
288,347,'1',0.0195,0.1248,0.0,260.0,312.0,312.0,0.0,0.0,0.0,0.0,1,1,0.0,1,1.0,0,1.0,0,1.0,0,1.0
58,76,'1',0.02397,0.04498,0.00499,74.0,74.0,74.0,0.0,0.0,0.0,0.0,1,1,0.0,1,1.0,0,1.0,0,1.0,0,1.0
267,312,'1',0.0349,0.0517,0.0,260.0,312.0,312.0,0.0,0.0,0.0,0.0,1,1,0.0,1,1.0,0,1.0,0,1.0,0,1.0
406,407,'1',8e-05,0.00083,0.0,438.0,438.0,438.0,0.0,0.0,0.0,0.0,1,2,0.0,1,1.0,0,1.0,0,1.0,0,1.0
459,466,'1',0.00041,0.00264,0.0236,183.0,183.0,183.0,0.0,0.0,0.0,0.0,1,2,0.0,1,1.0,0,1.0,0,1.0,0,1.0
338,341,'1',0.00321,0.02058,0.0029,259.0,278.0,278.0,0.0,0.0,0.0,0.0,1,2,0.0,1,1.0,0,1.0,0,1.0,0,1.0
100,698,'TL',0.0001,0.01,0.0,187.88,216.79,216.79,0.0,0.0,0.0,0.0,1,2,0.0,11,1.0,0,1.0,0,1.0,0,1.0
491,492,'1',0.00029,0.00115,0.0,260.0,312.0,312.0,0.0,0.0,0.0,0.0,1,1,0.0,1,1.0,0,1.0,0,1.0,0,1.0
645,646,'1',1e-05,6e-05,0.0,1593.0,1593.0,1593.0,0.0,0.0,0.0,0.0,1,2,0.0,1,1.0,0,1.0,0,1.0,0,1.0
209,211,'1',0.0,8e-05,0.0,75.0,75.0,75.0,0.0,0.0,0.0,0.0,1,1,0.0,1,1.0,0,1.0,0,1.0,0,1.0
327,354,'1',0.00306,0.021,0.00912,199.0,226.0,226.0,0.0,0.0,0.0,0.0,1,1,0.0,1,1.0,0,1.0,0,1.0,0,1.0
515,519,'1',0.00028,0.00104,0.0,260.0,312.0,312.0,0.0,0.0,0.0,0.0,1,1,0.0,1,1.0,0,1.0,0,1.0,0,1.0
510,511,'1',0.00023,0.0012,0.0,260.0,312.0,312.0,0.0,0.0,0.0,0.0,1,1,0.0,1,1.0,0,1.0,0,1.0,0,1.0
730,738,'1',0.00289,0.00719,0.00076,63.0,63.0,63.0,0.0,0.0,0.0,0.0,1,2,0.0,1,1.0,0,1.0,0,1.0,0,1.0
21,91,'1',0.02947,0.10073,0.01266,86.0,86.0,86.0,0.0,0.0,0.0,0.0,1,1,0.0,1,1.0,0,1.0,0,1.0,0,1.0
540,542,'1',0.00566,0.02978,0.00777,127.1,152.52,152.52,0.0,0.0,0.0,0.0,1,1,6.4,1,1.0,0,1.0,0,1.0,0,1.0
503,505,'1',0.00434,0.02447,0.00454,155.75,186.9,186.9,0.0,0.0,0.0,0.0,1,1,4.6,1,1.0,0,1.0,0,1.0,0,1.0
68,83,'1',0.01058,0.02193,0.00216,86.0,86.0,86.0,0.0,0.0,0.0,0.0,1,2,0.0,1,1.0,0,1.0,0,1.0,0,1.0
19,31,'1',0.00071,0.00582,0.01221,510.0,510.0,510.0,0.0,0.0,0.0,0.0,1,1,0.0,1,1.0,0,1.0,0,1.0,0,1.0
643,644,'1',1e-05,6e-05,0.0,1593.0,1593.0,1593.0,0.0,0.0,0.0,0.0,1,2,0.0,1,1.0,0,1.0,0,1.0,0,1.0
666,686,'1',0.00207,0.00694,0.0007,137.0,137.0,137.0,0.0,0.0,0.0,0.0,1,2,0.0,1,1.0,0,1.0,0,1.0,0,1.0
720,721,'1',8e-05,0.00083,0.0,438.0,438.0,438.0,0.0,0.0,0.0,0.0,1,2,0.0,1,1.0,0,1.0,0,1.0,0,1.0
693,694,'1',8e-05,0.00083,0.0,438.0,438.0,438.0,0.0,0.0,0.0,0.0,1,2,0.0,1,1.0,0,1.0,0,1.0,0,1.0
266,275,'1',0.00428,0.02744,0.0076,270.0,270.0,270.0,0.0,0.0,0.0,0.0,1,2,0.0,1,1.0,0,1.0,0,1.0,0,1.0
18,66,'1',2e-05,0.001,0.0,333.0,350.0,350.0,0.0,0.0,0.0,0.0,1,1,0.0,1,1.0,0,1.0,0,1.0,0,1.0
271,310,'1',0.04268,0.108,0.0,260.0,312.0,312.0,0.0,0.0,0.0,0.0,1,1,0.0,1,1.0,0,1.0,0,1.0,0,1.0
703,735,'1',0.00504,0.01562,0.00173,114.63,132.27,132.27,0.0,0.0,0.0,0.0,1,2,0.0,1,1.0,0,1.0,0,1.0,0,1.0
98,749,'TL',0.0001,0.01,0.0,122.55,141.4,141.4,0.0,0.0,0.0,0.0,1,2,0.0,6,1.0,0,1.0,0,1.0,0,1.0
273,285,'1',0.05465,0.12933,0.0,260.0,312.0,312.0,0.0,0.0,0.0,0.0,1,2,0.0,1,1.0,0,1.0,0,1.0,0,1.0
700,721,'1',0.00678,0.02215,0.00225,135.75,156.63,156.63,0.0,0.0,0.0,0.0,1,1,0.0,1,1.0,0,1.0,0,1.0,0,1.0
650,678,'1',0.00331,0.01074,0.00109,368.15,424.79,424.79,0.0,0.0,0.0,0.0,1,1,0.0,1,1.0,0,1.0,0,1.0,0,1.0
224,525,'TL',0.0001,0.01,0.0,998.64,1152.28,1152.28,0.0,0.0,0.0,0.0,1,1,0.0,43,1.0,0,1.0,0,1.0,0,1.0
...